Version 4
SHEET 1 2848 2736
WIRE 1472 1120 1408 1120
WIRE 1488 1120 1472 1120
WIRE 1600 1120 1584 1120
WIRE 1696 1120 1600 1120
WIRE 2528 1120 2464 1120
WIRE 2544 1120 2528 1120
WIRE 2656 1120 2640 1120
WIRE 2752 1120 2656 1120
WIRE 1344 1136 1280 1136
WIRE 1408 1136 1408 1120
WIRE 2400 1136 2336 1136
WIRE 2464 1136 2464 1120
WIRE 1280 1232 1280 1216
WIRE 1312 1232 1280 1232
WIRE 1344 1232 1312 1232
WIRE 1408 1232 1408 1216
WIRE 2336 1232 2336 1216
WIRE 2368 1232 2336 1232
WIRE 2400 1232 2368 1232
WIRE 2464 1232 2464 1216
WIRE 1344 1280 1280 1280
WIRE 1408 1280 1408 1232
WIRE 2400 1280 2336 1280
WIRE 2464 1280 2464 1232
WIRE 1280 1376 1280 1360
WIRE 1312 1376 1280 1376
WIRE 1344 1376 1312 1376
WIRE 2336 1376 2336 1360
WIRE 2368 1376 2336 1376
WIRE 2400 1376 2368 1376
WIRE 1344 1424 1280 1424
WIRE 1408 1424 1408 1376
WIRE 2400 1424 2336 1424
WIRE 2464 1424 2464 1376
WIRE 1280 1520 1280 1504
WIRE 1312 1520 1280 1520
WIRE 1344 1520 1312 1520
WIRE 2336 1520 2336 1504
WIRE 2368 1520 2336 1520
WIRE 2400 1520 2368 1520
WIRE 1344 1568 1280 1568
WIRE 1408 1568 1408 1520
WIRE 2400 1568 2336 1568
WIRE 2464 1568 2464 1520
WIRE 1280 1664 1280 1648
WIRE 1312 1664 1280 1664
WIRE 1344 1664 1312 1664
WIRE 2336 1664 2336 1648
WIRE 2368 1664 2336 1664
WIRE 2400 1664 2368 1664
WIRE 1408 1680 1408 1664
WIRE 2464 1680 2464 1664
WIRE 1472 1776 1408 1776
WIRE 1488 1776 1472 1776
WIRE 1600 1776 1584 1776
WIRE 1696 1776 1600 1776
WIRE 2528 1776 2464 1776
WIRE 2544 1776 2528 1776
WIRE 2656 1776 2640 1776
WIRE 2752 1776 2656 1776
WIRE 1344 1792 1280 1792
WIRE 1408 1792 1408 1776
WIRE 2400 1792 2336 1792
WIRE 2464 1792 2464 1776
WIRE 1280 1888 1280 1872
WIRE 1312 1888 1280 1888
WIRE 1344 1888 1312 1888
WIRE 1408 1888 1408 1872
WIRE 2336 1888 2336 1872
WIRE 2368 1888 2336 1888
WIRE 2400 1888 2368 1888
WIRE 2464 1888 2464 1872
WIRE 1344 1936 1280 1936
WIRE 1408 1936 1408 1888
WIRE 2400 1936 2336 1936
WIRE 2464 1936 2464 1888
WIRE 1280 2032 1280 2016
WIRE 1312 2032 1280 2032
WIRE 1344 2032 1312 2032
WIRE 2336 2032 2336 2016
WIRE 2368 2032 2336 2032
WIRE 2400 2032 2368 2032
WIRE 1344 2080 1280 2080
WIRE 1408 2080 1408 2032
WIRE 2400 2080 2336 2080
WIRE 2464 2080 2464 2032
WIRE 1280 2176 1280 2160
WIRE 1312 2176 1280 2176
WIRE 1344 2176 1312 2176
WIRE 2336 2176 2336 2160
WIRE 2368 2176 2336 2176
WIRE 2400 2176 2368 2176
WIRE 1344 2224 1280 2224
WIRE 1408 2224 1408 2176
WIRE 2400 2224 2336 2224
WIRE 2464 2224 2464 2176
WIRE 1280 2320 1280 2304
WIRE 1312 2320 1280 2320
WIRE 1344 2320 1312 2320
WIRE 2336 2320 2336 2304
WIRE 2368 2320 2336 2320
WIRE 2400 2320 2368 2320
WIRE 1408 2336 1408 2320
WIRE 2464 2336 2464 2320
FLAG 1776 1120 0
FLAG 1312 1376 0
FLAG 1312 1232 0
FLAG 1600 1200 0
FLAG 1312 1520 0
FLAG 1312 1664 0
FLAG 1408 1680 0
FLAG 1776 1776 0
FLAG 1312 2032 0
FLAG 1312 1888 0
FLAG 1600 1856 0
FLAG 1312 2176 0
FLAG 1312 2320 0
FLAG 1408 2336 0
FLAG 2832 1120 0
FLAG 2368 1376 0
FLAG 2368 1232 0
FLAG 2656 1200 0
FLAG 2368 1520 0
FLAG 2368 1664 0
FLAG 2464 1680 0
FLAG 2832 1776 0
FLAG 2368 2032 0
FLAG 2368 1888 0
FLAG 2656 1856 0
FLAG 2368 2176 0
FLAG 2368 2320 0
FLAG 2464 2336 0
FLAG 1600 1120 one_photon
FLAG 2656 1120 two_photons
FLAG 2656 1776 four_photons
FLAG 1600 1776 three_photons
FLAG 1472 1856 0
FLAG 2528 1856 0
FLAG 2528 1200 0
FLAG 1472 1200 0
SYMBOL qnn-spice/SNSPD/snspdWithPhotonPort 1408 1184 R0
SYMATTR InstName U4
SYMBOL qnn-spice/SNSPD/snspdWithPhotonPort 1408 1328 R0
SYMATTR InstName U5
SYMBOL taper_1 1536 1120 R0
SYMATTR InstName U6
SYMBOL current 1776 1120 R90
WINDOW 0 -32 40 VBottom 2
WINDOW 3 31 39 VTop 2
SYMATTR InstName I4
SYMATTR Value 15µ
SYMBOL current 1280 1360 R180
WINDOW 0 24 80 Left 2
WINDOW 3 24 0 Left 2
WINDOW 123 0 0 Left 0
WINDOW 39 0 0 Left 0
SYMATTR InstName I5
SYMATTR Value PULSE(0 0 20n 10p 10p 100p 160n 1)
SYMBOL current 1280 1216 R180
WINDOW 0 24 80 Left 2
WINDOW 3 24 0 Left 2
WINDOW 123 0 0 Left 0
WINDOW 39 0 0 Left 0
SYMATTR InstName I6
SYMATTR Value PULSE(0 1u 20n 10p 10p 100p 160n 1)
SYMBOL Res 1584 1104 R0
SYMATTR InstName R9
SYMATTR Value {Zlow}
SYMBOL qnn-spice/SNSPD/snspdWithPhotonPort 1408 1472 R0
SYMATTR InstName U10
SYMBOL current 1280 1504 R180
WINDOW 0 24 80 Left 2
WINDOW 3 24 0 Left 2
WINDOW 123 0 0 Left 0
WINDOW 39 0 0 Left 0
SYMATTR InstName I8
SYMATTR Value PULSE(0 0 20n 10p 10p 100p 160n 1)
SYMBOL qnn-spice/SNSPD/snspdWithPhotonPort 1408 1616 R0
SYMATTR InstName U11
SYMBOL current 1280 1648 R180
WINDOW 0 24 80 Left 2
WINDOW 3 24 0 Left 2
WINDOW 123 0 0 Left 0
WINDOW 39 0 0 Left 0
SYMATTR InstName I9
SYMATTR Value PULSE(0 0 20n 10p 10p 100p 160n 1)
SYMBOL qnn-spice/SNSPD/snspdWithPhotonPort 1408 1840 R0
SYMATTR InstName U7
SYMBOL qnn-spice/SNSPD/snspdWithPhotonPort 1408 1984 R0
SYMATTR InstName U8
SYMBOL taper_1 1536 1776 R0
SYMATTR InstName U9
SYMBOL current 1776 1776 R90
WINDOW 0 -32 40 VBottom 2
WINDOW 3 31 39 VTop 2
SYMATTR InstName I2
SYMATTR Value 15µ
SYMBOL current 1280 2016 R180
WINDOW 0 24 80 Left 2
WINDOW 3 24 0 Left 2
WINDOW 123 0 0 Left 0
WINDOW 39 0 0 Left 0
SYMATTR InstName I3
SYMATTR Value PULSE(0 1u 20n 10p 10p 100p 160n 1)
SYMBOL current 1280 1872 R180
WINDOW 0 24 80 Left 2
WINDOW 3 24 0 Left 2
WINDOW 123 0 0 Left 0
WINDOW 39 0 0 Left 0
SYMATTR InstName I7
SYMATTR Value PULSE(0 1u 20n 10p 10p 100p 160n 1)
SYMBOL Res 1584 1760 R0
SYMATTR InstName R7
SYMATTR Value {Zlow}
SYMBOL qnn-spice/SNSPD/snspdWithPhotonPort 1408 2128 R0
SYMATTR InstName U12
SYMBOL current 1280 2160 R180
WINDOW 0 24 80 Left 2
WINDOW 3 24 0 Left 2
WINDOW 123 0 0 Left 0
WINDOW 39 0 0 Left 0
SYMATTR InstName I10
SYMATTR Value PULSE(0 1u 20n 10p 10p 100p 160n 1)
SYMBOL qnn-spice/SNSPD/snspdWithPhotonPort 1408 2272 R0
SYMATTR InstName U13
SYMBOL current 1280 2304 R180
WINDOW 0 24 80 Left 2
WINDOW 3 24 0 Left 2
WINDOW 123 0 0 Left 0
WINDOW 39 0 0 Left 0
SYMATTR InstName I11
SYMATTR Value PULSE(0 0 20n 10p 10p 100p 160n 1)
SYMBOL qnn-spice/SNSPD/snspdWithPhotonPort 2464 1184 R0
SYMATTR InstName U14
SYMBOL qnn-spice/SNSPD/snspdWithPhotonPort 2464 1328 R0
SYMATTR InstName U15
SYMBOL taper_1 2592 1120 R0
SYMATTR InstName U16
SYMBOL current 2832 1120 R90
WINDOW 0 -32 40 VBottom 2
WINDOW 3 31 39 VTop 2
SYMATTR InstName I12
SYMATTR Value 15µ
SYMBOL current 2336 1360 R180
WINDOW 0 24 80 Left 2
WINDOW 3 24 0 Left 2
WINDOW 123 0 0 Left 0
WINDOW 39 0 0 Left 0
SYMATTR InstName I13
SYMATTR Value PULSE(0 1u 20n 10p 10p 100p 160n 1)
SYMBOL current 2336 1216 R180
WINDOW 0 24 80 Left 2
WINDOW 3 24 0 Left 2
WINDOW 123 0 0 Left 0
WINDOW 39 0 0 Left 0
SYMATTR InstName I14
SYMATTR Value PULSE(0 1u 20n 10p 10p 100p 160n 1)
SYMBOL Res 2640 1104 R0
SYMATTR InstName R8
SYMATTR Value {Zlow}
SYMBOL qnn-spice/SNSPD/snspdWithPhotonPort 2464 1472 R0
SYMATTR InstName U17
SYMBOL current 2336 1504 R180
WINDOW 0 24 80 Left 2
WINDOW 3 24 0 Left 2
WINDOW 123 0 0 Left 0
WINDOW 39 0 0 Left 0
SYMATTR InstName I15
SYMATTR Value PULSE(0 0 20n 10p 10p 100p 160n 1)
SYMBOL qnn-spice/SNSPD/snspdWithPhotonPort 2464 1616 R0
SYMATTR InstName U18
SYMBOL current 2336 1648 R180
WINDOW 0 24 80 Left 2
WINDOW 3 24 0 Left 2
WINDOW 123 0 0 Left 0
WINDOW 39 0 0 Left 0
SYMATTR InstName I16
SYMATTR Value PULSE(0 0 20n 10p 10p 100p 160n 1)
SYMBOL qnn-spice/SNSPD/snspdWithPhotonPort 2464 1840 R0
SYMATTR InstName U19
SYMBOL qnn-spice/SNSPD/snspdWithPhotonPort 2464 1984 R0
SYMATTR InstName U20
SYMBOL taper_1 2592 1776 R0
SYMATTR InstName U21
SYMBOL current 2832 1776 R90
WINDOW 0 -32 40 VBottom 2
WINDOW 3 31 39 VTop 2
SYMATTR InstName I17
SYMATTR Value 15µ
SYMBOL current 2336 2016 R180
WINDOW 0 24 80 Left 2
WINDOW 3 24 0 Left 2
WINDOW 123 0 0 Left 0
WINDOW 39 0 0 Left 0
SYMATTR InstName I18
SYMATTR Value PULSE(0 1u 20n 10p 10p 100p 160n 1)
SYMBOL current 2336 1872 R180
WINDOW 0 24 80 Left 2
WINDOW 3 24 0 Left 2
WINDOW 123 0 0 Left 0
WINDOW 39 0 0 Left 0
SYMATTR InstName I19
SYMATTR Value PULSE(0 1u 20n 10p 10p 100p 160n 1)
SYMBOL Res 2640 1760 R0
SYMATTR InstName R10
SYMATTR Value {Zlow}
SYMBOL qnn-spice/SNSPD/snspdWithPhotonPort 2464 2128 R0
SYMATTR InstName U22
SYMBOL current 2336 2160 R180
WINDOW 0 24 80 Left 2
WINDOW 3 24 0 Left 2
WINDOW 123 0 0 Left 0
WINDOW 39 0 0 Left 0
SYMATTR InstName I20
SYMATTR Value PULSE(0 1u 20n 10p 10p 100p 160n 1)
SYMBOL qnn-spice/SNSPD/snspdWithPhotonPort 2464 2272 R0
SYMATTR InstName U23
SYMBOL current 2336 2304 R180
WINDOW 0 24 80 Left 2
WINDOW 3 24 0 Left 2
WINDOW 123 0 0 Left 0
WINDOW 39 0 0 Left 0
SYMATTR InstName I21
SYMATTR Value PULSE(0 1u 20n 10p 10p 100p 160n 1)
SYMBOL noise_source_1 1472 1776 R0
SYMATTR InstName U24
SYMBOL noise_source_1 2528 1776 R0
SYMATTR InstName U25
SYMBOL noise_source_1 2528 1120 R0
SYMATTR InstName U26
SYMBOL noise_source_1 1472 1120 R0
SYMATTR InstName U27
TEXT 248 584 Left 2 ;tran 1u
TEXT 408 536 Left 2 ;setup block
TEXT -376 1408 Left 2 !.param Zlow 55.25\n.param Zhigh 903.789
TEXT 1552 1272 Left 4 ;1 photon
TEXT 2608 1264 Left 4 ;2 photons
TEXT 2624 1928 Left 4 ;4 photons
TEXT 1560 1936 Left 4 ;3 photons
TEXT 264 784 Left 2 !.tran 20ns 28ns
TEXT 1712 856 Left 7 ;todo: Discrete tline
TEXT 240 672 Left 2 ;.include .spice-daemon-data/trancmd.txt
TEXT 392 544 Left 2 ;spice-daemon
TEXT 240 624 Left 2 ;.tran 0 {Tstop} 0 {STEPSIZE}
RECTANGLE Normal 740 736 196 512 2
RECTANGLE Normal 740 736 196 512 2
