Version 4
SHEET 1 964 740
FLAG 912 496 0
FLAG 912 336 0
SYMBOL noise_source_1 912 416 R0
SYMATTR InstName U1
SYMBOL Res 896 320 R0
SYMATTR InstName R1
SYMATTR Value 5
SYMBOL taper_1 592 320 R0
SYMATTR InstName U2
TEXT 480 184 Left 2 ; disabled by spice-daemon ;.tran 1
TEXT 240 672 Left 2 !.include .spice-daemon-data/trancmd.txt
TEXT 392 544 Left 2 ;spice-daemon
TEXT 240 624 Left 2 !.tran 0 {Tstop} 0 {STEPSIZE}
RECTANGLE Normal 740 736 196 512 2
