Version 4
SHEET 1 2848 2736
WIRE 1312 1120 1280 1120
WIRE 1344 1120 1312 1120
WIRE 1600 1120 1408 1120
WIRE 1696 1120 1600 1120
WIRE 1344 1136 1344 1120
WIRE 1408 1136 1408 1120
WIRE 1280 1152 1280 1120
WIRE 1280 1248 1280 1232
WIRE 1312 1248 1280 1248
WIRE 1344 1248 1344 1232
WIRE 1344 1248 1312 1248
WIRE 1408 1264 1408 1232
FLAG 1776 1120 0
FLAG 1312 1248 0
FLAG 1600 1200 0
FLAG 1408 1264 0
FLAG 1600 1120 one_photon
FLAG 1312 1120 0
SYMBOL qnn-spice/SNSPD/snspdWithPhotonPort 1408 1184 R0
SYMATTR InstName U4
SYMBOL current 1776 1120 R90
WINDOW 0 -32 40 VBottom 2
WINDOW 3 31 39 VTop 2
SYMATTR InstName I4
SYMATTR Value 24µ
SYMBOL Res 1584 1104 R0
SYMATTR InstName R9
SYMATTR Value {Zlow}
SYMBOL current 1280 1232 R180
WINDOW 0 24 80 Left 2
WINDOW 3 24 0 Left 2
SYMATTR InstName I1
TEXT 248 584 Left 2 ;tran 1u
TEXT 408 536 Left 2 ;setup block
TEXT -376 1408 Left 2 !.param Zlow 55.25\n.param Zhigh 903.789
TEXT 1552 1272 Left 4 ;1 photon
TEXT 264 784 Left 2 !.tran 20ns
TEXT 240 672 Left 2 ;.include .spice-daemon-data/trancmd.txt
TEXT 392 544 Left 2 ;spice-daemon
TEXT 240 624 Left 2 ;.tran 0 {Tstop} 0 {STEPSIZE}
TEXT 1408 1360 Left 2 ;.step param I list 5u 10u 15u 20u 25u
RECTANGLE Normal 740 736 196 512 2
RECTANGLE Normal 740 736 196 512 2
