Version 4
SHEET 1 1140 680
WIRE 576 -208 384 -208
WIRE 672 -208 576 -208
WIRE 320 -192 256 -192
WIRE 384 -192 384 -208
WIRE 256 -96 256 -112
WIRE 288 -96 256 -96
WIRE 320 -96 288 -96
FLAG 752 -208 0
FLAG 288 -96 0
FLAG 576 -128 0
FLAG 576 -208 one_photon
FLAG 384 -96 0
SYMBOL current 752 -208 R90
WINDOW 0 -32 40 VBottom 2
WINDOW 3 31 39 VTop 2
SYMATTR InstName I1
SYMATTR Value 15.2µ
SYMBOL current 256 -112 R180
WINDOW 0 24 80 Left 2
WINDOW 3 24 0 Left 2
WINDOW 123 0 0 Left 0
WINDOW 39 0 0 Left 0
SYMATTR InstName I3
SYMATTR Value PULSE(0 1u 20n 1p 1p 1p 40n 1)
SYMBOL Res 560 -224 R0
SYMATTR InstName R2
SYMATTR Value 50
SYMBOL qnn-spice/SNSPD/snspdWithPhotonPort 384 -144 R0
SYMATTR InstName U1
SYMATTR Value Isw={Isw}
TEXT 16 64 Left 2 ;.step param sweep 10u 20u 0.1u
TEXT 16 24 Left 2 !.tran 0 100n 1e-40
TEXT 528 -56 Left 4 ;1 photon
TEXT 16 112 Left 2 ;.step param sweep list 6u 12u 18u
TEXT 120 176 Left 2 !.param Isw=20u
