** Auto-generated by spice_daemon **

.subckt noise_source_1 in out

** NOISE SOURCE **
i out in PWL file=/Users/torque/programs/spice-daemon/test/.spice-daemon-data/noise_data_noise_source_1.csv

.ends noise_source_1

.subckt taper_1 Zlow Zhigh
** TAPER **
L1 Zlow Nt1 5.962184057818308e-11 Rser=1e-10 Rpar=0 Cpar=0
C1 Nt1 0 1.9525693774588483e-14 Rpar=0 Cpar=0 Lser=0
L2 Nt1 Nt2 5.967012204635413e-11 Rser=1e-10 Rpar=0 Cpar=0
C2 Nt2 0 1.9496283253350167e-14 Rpar=0 Cpar=0 Lser=0
L3 Nt2 Nt3 5.971870448843696e-11 Rser=1e-10 Rpar=0 Cpar=0
C3 Nt3 0 1.9466742186465252e-14 Rpar=0 Cpar=0 Lser=0
L4 Nt3 Nt4 5.976758878383707e-11 Rser=1e-10 Rpar=0 Cpar=0
C4 Nt4 0 1.9437070894504805e-14 Rpar=0 Cpar=0 Lser=0
L5 Nt4 Nt5 5.981677581110922e-11 Rser=1e-10 Rpar=0 Cpar=0
C5 Nt5 0 1.940726970409813e-14 Rpar=0 Cpar=0 Lser=0
L6 Nt5 Nt6 5.986626644793253e-11 Rser=1e-10 Rpar=0 Cpar=0
C6 Nt6 0 1.937733894792866e-14 Rpar=0 Cpar=0 Lser=0
L7 Nt6 Nt7 5.991606157108591e-11 Rser=1e-10 Rpar=0 Cpar=0
C7 Nt7 0 1.9347278964728756e-14 Rpar=0 Cpar=0 Lser=0
L8 Nt7 Nt8 5.996616205642259e-11 Rser=1e-10 Rpar=0 Cpar=0
C8 Nt8 0 1.931709009927461e-14 Rpar=0 Cpar=0 Lser=0
L9 Nt8 Nt9 6.001656877884486e-11 Rser=1e-10 Rpar=0 Cpar=0
C9 Nt9 0 1.9286772702380245e-14 Rpar=0 Cpar=0 Lser=0
L10 Nt9 Nt10 6.00672826122781e-11 Rser=1e-10 Rpar=0 Cpar=0
C10 Nt10 0 1.925632713089135e-14 Rpar=0 Cpar=0 Lser=0
L11 Nt10 Nt11 6.011830442964512e-11 Rser=1e-10 Rpar=0 Cpar=0
C11 Nt11 0 1.922575374767831e-14 Rpar=0 Cpar=0 Lser=0
L12 Nt11 Nt12 6.016963510283946e-11 Rser=1e-10 Rpar=0 Cpar=0
C12 Nt12 0 1.9195052921629105e-14 Rpar=0 Cpar=0 Lser=0
L13 Nt12 Nt13 6.022127550269893e-11 Rser=1e-10 Rpar=0 Cpar=0
C13 Nt13 0 1.9164225027641513e-14 Rpar=0 Cpar=0 Lser=0
L14 Nt13 Nt14 6.027322649897894e-11 Rser=1e-10 Rpar=0 Cpar=0
C14 Nt14 0 1.913327044661472e-14 Rpar=0 Cpar=0 Lser=0
L15 Nt14 Nt15 6.032548896032492e-11 Rser=1e-10 Rpar=0 Cpar=0
C15 Nt15 0 1.9102189565440848e-14 Rpar=0 Cpar=0 Lser=0
L16 Nt15 Nt16 6.037806375424518e-11 Rser=1e-10 Rpar=0 Cpar=0
C16 Nt16 0 1.9070982776995564e-14 Rpar=0 Cpar=0 Lser=0
L17 Nt16 Nt17 6.043095174708299e-11 Rser=1e-10 Rpar=0 Cpar=0
C17 Nt17 0 1.9039650480128427e-14 Rpar=0 Cpar=0 Lser=0
L18 Nt17 Nt18 6.048415380398857e-11 Rser=1e-10 Rpar=0 Cpar=0
C18 Nt18 0 1.9008193079652718e-14 Rpar=0 Cpar=0 Lser=0
L19 Nt18 Nt19 6.053767078889068e-11 Rser=1e-10 Rpar=0 Cpar=0
C19 Nt19 0 1.897661098633481e-14 Rpar=0 Cpar=0 Lser=0
L20 Nt19 Nt20 6.059150356446792e-11 Rser=1e-10 Rpar=0 Cpar=0
C20 Nt20 0 1.8944904616883002e-14 Rpar=0 Cpar=0 Lser=0
L21 Nt20 Nt21 6.064565299211993e-11 Rser=1e-10 Rpar=0 Cpar=0
C21 Nt21 0 1.89130743939358e-14 Rpar=0 Cpar=0 Lser=0
L22 Nt21 Nt22 6.07001140317366e-11 Rser=1e-10 Rpar=0 Cpar=0
C22 Nt22 0 1.888111891075846e-14 Rpar=0 Cpar=0 Lser=0
L23 Nt22 Nt23 6.075450910799684e-11 Rser=1e-10 Rpar=0 Cpar=0
C23 Nt23 0 1.884892120798113e-14 Rpar=0 Cpar=0 Lser=0
L24 Nt23 Nt24 6.080922043383146e-11 Rser=1e-10 Rpar=0 Cpar=0
C24 Nt24 0 1.881660066604846e-14 Rpar=0 Cpar=0 Lser=0
L25 Nt24 Nt25 6.08642488468311e-11 Rser=1e-10 Rpar=0 Cpar=0
C25 Nt25 0 1.878415773530983e-14 Rpar=0 Cpar=0 Lser=0
L26 Nt25 Nt26 6.091959518305305e-11 Rser=1e-10 Rpar=0 Cpar=0
C26 Nt26 0 1.8751592872011246e-14 Rpar=0 Cpar=0 Lser=0
L27 Nt26 Nt27 6.097526027698998e-11 Rser=1e-10 Rpar=0 Cpar=0
C27 Nt27 0 1.8718906538280585e-14 Rpar=0 Cpar=0 Lser=0
L28 Nt27 Nt28 6.103124496153858e-11 Rser=1e-10 Rpar=0 Cpar=0
C28 Nt28 0 1.8686099202112357e-14 Rpar=0 Cpar=0 Lser=0
L29 Nt28 Nt29 6.108755006796761e-11 Rser=1e-10 Rpar=0 Cpar=0
C29 Nt29 0 1.865317133735198e-14 Rpar=0 Cpar=0 Lser=0
L30 Nt29 Nt30 6.114417642588606e-11 Rser=1e-10 Rpar=0 Cpar=0
C30 Nt30 0 1.862012342367948e-14 Rpar=0 Cpar=0 Lser=0
L31 Nt30 Nt31 6.120112486321063e-11 Rser=1e-10 Rpar=0 Cpar=0
C31 Nt31 0 1.8586955946592803e-14 Rpar=0 Cpar=0 Lser=0
L32 Nt31 Nt32 6.125839620613299e-11 Rser=1e-10 Rpar=0 Cpar=0
C32 Nt32 0 1.8553669397390602e-14 Rpar=0 Cpar=0 Lser=0
L33 Nt32 Nt33 6.131599127908675e-11 Rser=1e-10 Rpar=0 Cpar=0
C33 Nt33 0 1.8520264273154492e-14 Rpar=0 Cpar=0 Lser=0
L34 Nt33 Nt34 6.137391090471406e-11 Rser=1e-10 Rpar=0 Cpar=0
C34 Nt34 0 1.8486741076730927e-14 Rpar=0 Cpar=0 Lser=0
L35 Nt34 Nt35 6.143215590383206e-11 Rser=1e-10 Rpar=0 Cpar=0
C35 Nt35 0 1.845310031671241e-14 Rpar=0 Cpar=0 Lser=0
L36 Nt35 Nt36 6.149072709539892e-11 Rser=1e-10 Rpar=0 Cpar=0
C36 Nt36 0 1.8419342507418294e-14 Rpar=0 Cpar=0 Lser=0
L37 Nt36 Nt37 6.1549625296479e-11 Rser=1e-10 Rpar=0 Cpar=0
C37 Nt37 0 1.8385468168875366e-14 Rpar=0 Cpar=0 Lser=0
L38 Nt37 Nt38 6.160885132220895e-11 Rser=1e-10 Rpar=0 Cpar=0
C38 Nt38 0 1.8351477826797303e-14 Rpar=0 Cpar=0 Lser=0
L39 Nt38 Nt39 6.166840598576213e-11 Rser=1e-10 Rpar=0 Cpar=0
C39 Nt39 0 1.8317372012564368e-14 Rpar=0 Cpar=0 Lser=0
L40 Nt39 Nt40 6.172829009831348e-11 Rser=1e-10 Rpar=0 Cpar=0
C40 Nt40 0 1.8283151263202125e-14 Rpar=0 Cpar=0 Lser=0
L41 Nt40 Nt41 6.178850446900402e-11 Rser=1e-10 Rpar=0 Cpar=0
C41 Nt41 0 1.824881612135978e-14 Rpar=0 Cpar=0 Lser=0
L42 Nt41 Nt42 6.184904990490453e-11 Rser=1e-10 Rpar=0 Cpar=0
C42 Nt42 0 1.821436713528826e-14 Rpar=0 Cpar=0 Lser=0
L43 Nt42 Nt43 6.19099272109796e-11 Rser=1e-10 Rpar=0 Cpar=0
C43 Nt43 0 1.8179804858817423e-14 Rpar=0 Cpar=0 Lser=0
L44 Nt43 Nt44 6.197113719005061e-11 Rser=1e-10 Rpar=0 Cpar=0
C44 Nt44 0 1.814512985133319e-14 Rpar=0 Cpar=0 Lser=0
L45 Nt44 Nt45 6.203268064275912e-11 Rser=1e-10 Rpar=0 Cpar=0
C45 Nt45 0 1.8110342677753794e-14 Rpar=0 Cpar=0 Lser=0
L46 Nt45 Nt46 6.209455836752911e-11 Rser=1e-10 Rpar=0 Cpar=0
C46 Nt46 0 1.8075443908505984e-14 Rpar=0 Cpar=0 Lser=0
L47 Nt46 Nt47 6.215677116052976e-11 Rser=1e-10 Rpar=0 Cpar=0
C47 Nt47 0 1.8040434119500296e-14 Rpar=0 Cpar=0 Lser=0
L48 Nt47 Nt48 6.221903320234784e-11 Rser=1e-10 Rpar=0 Cpar=0
C48 Nt48 0 1.8005230950629993e-14 Rpar=0 Cpar=0 Lser=0
L49 Nt48 Nt49 6.2281562790043e-11 Rser=1e-10 Rpar=0 Cpar=0
C49 Nt49 0 1.7969898482467305e-14 Rpar=0 Cpar=0 Lser=0
L50 Nt49 Nt50 6.234442719232297e-11 Rser=1e-10 Rpar=0 Cpar=0
C50 Nt50 0 1.793445661074942e-14 Rpar=0 Cpar=0 Lser=0
L51 Nt50 Nt51 6.240762717994222e-11 Rser=1e-10 Rpar=0 Cpar=0
C51 Nt51 0 1.7898905936915913e-14 Rpar=0 Cpar=0 Lser=0
L52 Nt51 Nt52 6.247116352112301e-11 Rser=1e-10 Rpar=0 Cpar=0
C52 Nt52 0 1.7863247067780808e-14 Rpar=0 Cpar=0 Lser=0
L53 Nt52 Nt53 6.253503698151556e-11 Rser=1e-10 Rpar=0 Cpar=0
C53 Nt53 0 1.7827480615504932e-14 Rpar=0 Cpar=0 Lser=0
L54 Nt53 Nt54 6.259924832415811e-11 Rser=1e-10 Rpar=0 Cpar=0
C54 Nt54 0 1.779160719756779e-14 Rpar=0 Cpar=0 Lser=0
L55 Nt54 Nt55 6.266379830943613e-11 Rser=1e-10 Rpar=0 Cpar=0
C55 Nt55 0 1.7755627436739152e-14 Rpar=0 Cpar=0 Lser=0
L56 Nt55 Nt56 6.272868769504158e-11 Rser=1e-10 Rpar=0 Cpar=0
C56 Nt56 0 1.7719541961049983e-14 Rpar=0 Cpar=0 Lser=0
L57 Nt56 Nt57 6.279391723593169e-11 Rser=1e-10 Rpar=0 Cpar=0
C57 Nt57 0 1.7683351403763e-14 Rpar=0 Cpar=0 Lser=0
L58 Nt57 Nt58 6.285948768428736e-11 Rser=1e-10 Rpar=0 Cpar=0
C58 Nt58 0 1.7647056403342734e-14 Rpar=0 Cpar=0 Lser=0
L59 Nt58 Nt59 6.29253997894713e-11 Rser=1e-10 Rpar=0 Cpar=0
C59 Nt59 0 1.7610657603425157e-14 Rpar=0 Cpar=0 Lser=0
L60 Nt59 Nt60 6.299165429798584e-11 Rser=1e-10 Rpar=0 Cpar=0
C60 Nt60 0 1.7574155652786786e-14 Rpar=0 Cpar=0 Lser=0
L61 Nt60 Nt61 6.305825195343003e-11 Rser=1e-10 Rpar=0 Cpar=0
C61 Nt61 0 1.7537551205313498e-14 Rpar=0 Cpar=0 Lser=0
L62 Nt61 Nt62 6.31251934964573e-11 Rser=1e-10 Rpar=0 Cpar=0
C62 Nt62 0 1.7500844919968534e-14 Rpar=0 Cpar=0 Lser=0
L63 Nt62 Nt63 6.319247966473155e-11 Rser=1e-10 Rpar=0 Cpar=0
C63 Nt63 0 1.7464037460760513e-14 Rpar=0 Cpar=0 Lser=0
L64 Nt63 Nt64 6.32601111928838e-11 Rser=1e-10 Rpar=0 Cpar=0
C64 Nt64 0 1.742712949671065e-14 Rpar=0 Cpar=0 Lser=0
L65 Nt64 Nt65 6.33280888124683e-11 Rser=1e-10 Rpar=0 Cpar=0
C65 Nt65 0 1.7390121701819608e-14 Rpar=0 Cpar=0 Lser=0
L66 Nt65 Nt66 6.339641325191795e-11 Rser=1e-10 Rpar=0 Cpar=0
C66 Nt66 0 1.7353014755034023e-14 Rpar=0 Cpar=0 Lser=0
L67 Nt66 Nt67 6.346508523649982e-11 Rser=1e-10 Rpar=0 Cpar=0
C67 Nt67 0 1.7315809340212373e-14 Rpar=0 Cpar=0 Lser=0
L68 Nt67 Nt68 6.353410548826994e-11 Rser=1e-10 Rpar=0 Cpar=0
C68 Nt68 0 1.7278506146090676e-14 Rpar=0 Cpar=0 Lser=0
L69 Nt68 Nt69 6.360347472602814e-11 Rser=1e-10 Rpar=0 Cpar=0
C69 Nt69 0 1.7241105866247416e-14 Rpar=0 Cpar=0 Lser=0
L70 Nt69 Nt70 6.367319366527209e-11 Rser=1e-10 Rpar=0 Cpar=0
C70 Nt70 0 1.7203609199068373e-14 Rpar=0 Cpar=0 Lser=0
L71 Nt70 Nt71 6.374293935207373e-11 Rser=1e-10 Rpar=0 Cpar=0
C71 Nt71 0 1.7165929684658803e-14 Rpar=0 Cpar=0 Lser=0
L72 Nt71 Nt72 6.381299767171804e-11 Rser=1e-10 Rpar=0 Cpar=0
C72 Nt72 0 1.712814543760252e-14 Rpar=0 Cpar=0 Lser=0
L73 Nt72 Nt73 6.388340520933279e-11 Rser=1e-10 Rpar=0 Cpar=0
C73 Nt73 0 1.7090266872744915e-14 Rpar=0 Cpar=0 Lser=0
L74 Nt73 Nt74 6.395416265116128e-11 Rser=1e-10 Rpar=0 Cpar=0
C74 Nt74 0 1.705229471119036e-14 Rpar=0 Cpar=0 Lser=0
L75 Nt74 Nt75 6.402527067983812e-11 Rser=1e-10 Rpar=0 Cpar=0
C75 Nt75 0 1.7014229678680018e-14 Rpar=0 Cpar=0 Lser=0
L76 Nt75 Nt76 6.409672997434131e-11 Rser=1e-10 Rpar=0 Cpar=0
C76 Nt76 0 1.6976072505553733e-14 Rpar=0 Cpar=0 Lser=0
L77 Nt76 Nt77 6.416854120994399e-11 Rser=1e-10 Rpar=0 Cpar=0
C77 Nt77 0 1.693782392671152e-14 Rpar=0 Cpar=0 Lser=0
L78 Nt77 Nt78 6.424070505816613e-11 Rser=1e-10 Rpar=0 Cpar=0
C78 Nt78 0 1.6899484681574428e-14 Rpar=0 Cpar=0 Lser=0
L79 Nt78 Nt79 6.431322218672561e-11 Rser=1e-10 Rpar=0 Cpar=0
C79 Nt79 0 1.6861055514045232e-14 Rpar=0 Cpar=0 Lser=0
L80 Nt79 Nt80 6.438609325948926e-11 Rser=1e-10 Rpar=0 Cpar=0
C80 Nt80 0 1.6822537172468542e-14 Rpar=0 Cpar=0 Lser=0
L81 Nt80 Nt81 6.445931893642307e-11 Rser=1e-10 Rpar=0 Cpar=0
C81 Nt81 0 1.6783930409590644e-14 Rpar=0 Cpar=0 Lser=0
L82 Nt81 Nt82 6.45328998735427e-11 Rser=1e-10 Rpar=0 Cpar=0
C82 Nt82 0 1.674523598251878e-14 Rpar=0 Cpar=0 Lser=0
L83 Nt82 Nt83 6.460683672286314e-11 Rser=1e-10 Rpar=0 Cpar=0
C83 Nt83 0 1.6706454652680137e-14 Rpar=0 Cpar=0 Lser=0
L84 Nt83 Nt84 6.468113013234813e-11 Rser=1e-10 Rpar=0 Cpar=0
C84 Nt84 0 1.666758718578049e-14 Rpar=0 Cpar=0 Lser=0
L85 Nt84 Nt85 6.475578074585953e-11 Rser=1e-10 Rpar=0 Cpar=0
C85 Nt85 0 1.6628634351762264e-14 Rpar=0 Cpar=0 Lser=0
L86 Nt85 Nt86 6.483078920310597e-11 Rser=1e-10 Rpar=0 Cpar=0
C86 Nt86 0 1.6589596924762396e-14 Rpar=0 Cpar=0 Lser=0
L87 Nt86 Nt87 6.490615613959142e-11 Rser=1e-10 Rpar=0 Cpar=0
C87 Nt87 0 1.6550475683069712e-14 Rpar=0 Cpar=0 Lser=0
L88 Nt87 Nt88 6.498188218656313e-11 Rser=1e-10 Rpar=0 Cpar=0
C88 Nt88 0 1.651127140908201e-14 Rpar=0 Cpar=0 Lser=0
L89 Nt88 Nt89 6.505796797095979e-11 Rser=1e-10 Rpar=0 Cpar=0
C89 Nt89 0 1.647198488926259e-14 Rpar=0 Cpar=0 Lser=0
L90 Nt89 Nt90 6.513441411535874e-11 Rser=1e-10 Rpar=0 Cpar=0
C90 Nt90 0 1.6432616914096586e-14 Rpar=0 Cpar=0 Lser=0
L91 Nt90 Nt91 6.521122123792319e-11 Rser=1e-10 Rpar=0 Cpar=0
C91 Nt91 0 1.6393168278046873e-14 Rpar=0 Cpar=0 Lser=0
L92 Nt91 Nt92 6.528818745450741e-11 Rser=1e-10 Rpar=0 Cpar=0
C92 Nt92 0 1.6353589057217964e-14 Rpar=0 Cpar=0 Lser=0
L93 Nt92 Nt93 6.536533215889563e-11 Rser=1e-10 Rpar=0 Cpar=0
C93 Nt93 0 1.631388529074697e-14 Rpar=0 Cpar=0 Lser=0
L94 Nt93 Nt94 6.544283694420187e-11 Rser=1e-10 Rpar=0 Cpar=0
C94 Nt94 0 1.6274103290575305e-14 Rpar=0 Cpar=0 Lser=0
L95 Nt94 Nt95 6.55207023945581e-11 Rser=1e-10 Rpar=0 Cpar=0
C95 Nt95 0 1.6234243870559752e-14 Rpar=0 Cpar=0 Lser=0
L96 Nt95 Nt96 6.559892908934846e-11 Rser=1e-10 Rpar=0 Cpar=0
C96 Nt96 0 1.6194307848315297e-14 Rpar=0 Cpar=0 Lser=0
L97 Nt96 Nt97 6.567751760315471e-11 Rser=1e-10 Rpar=0 Cpar=0
C97 Nt97 0 1.6154296045168638e-14 Rpar=0 Cpar=0 Lser=0
L98 Nt97 Nt98 6.57564685057012e-11 Rser=1e-10 Rpar=0 Cpar=0
C98 Nt98 0 1.6114209286111286e-14 Rpar=0 Cpar=0 Lser=0
L99 Nt98 Nt99 6.583578236179954e-11 Rser=1e-10 Rpar=0 Cpar=0
C99 Nt99 0 1.6074048399752343e-14 Rpar=0 Cpar=0 Lser=0
L100 Nt99 Nt100 6.591545973129346e-11 Rser=1e-10 Rpar=0 Cpar=0
C100 Nt100 0 1.603381421827088e-14 Rpar=0 Cpar=0 Lser=0
L101 Nt100 Nt101 6.599550116900238e-11 Rser=1e-10 Rpar=0 Cpar=0
C101 Nt101 0 1.599350757736815e-14 Rpar=0 Cpar=0 Lser=0
L102 Nt101 Nt102 6.607590722466591e-11 Rser=1e-10 Rpar=0 Cpar=0
C102 Nt102 0 1.5953129316219203e-14 Rpar=0 Cpar=0 Lser=0
L103 Nt102 Nt103 6.61566784428867e-11 Rser=1e-10 Rpar=0 Cpar=0
C103 Nt103 0 1.5912680277424564e-14 Rpar=0 Cpar=0 Lser=0
L104 Nt103 Nt104 6.623781536307426e-11 Rser=1e-10 Rpar=0 Cpar=0
C104 Nt104 0 1.5872161306961096e-14 Rpar=0 Cpar=0 Lser=0
L105 Nt104 Nt105 6.631931851938751e-11 Rser=1e-10 Rpar=0 Cpar=0
C105 Nt105 0 1.583157325413307e-14 Rpar=0 Cpar=0 Lser=0
L106 Nt105 Nt106 6.640118844067761e-11 Rser=1e-10 Rpar=0 Cpar=0
C106 Nt106 0 1.579091697152251e-14 Rpar=0 Cpar=0 Lser=0
L107 Nt106 Nt107 6.648342565043014e-11 Rser=1e-10 Rpar=0 Cpar=0
C107 Nt107 0 1.575019331493953e-14 Rpar=0 Cpar=0 Lser=0
L108 Nt107 Nt108 6.65660306667073e-11 Rser=1e-10 Rpar=0 Cpar=0
C108 Nt108 0 1.5709403143372122e-14 Rpar=0 Cpar=0 Lser=0
L109 Nt108 Nt109 6.664900400208962e-11 Rser=1e-10 Rpar=0 Cpar=0
C109 Nt109 0 1.5668547318935846e-14 Rpar=0 Cpar=0 Lser=0
L110 Nt109 Nt110 6.67323461636172e-11 Rser=1e-10 Rpar=0 Cpar=0
C110 Nt110 0 1.5627626706823193e-14 Rpar=0 Cpar=0 Lser=0
L111 Nt110 Nt111 6.681605765273127e-11 Rser=1e-10 Rpar=0 Cpar=0
C111 Nt111 0 1.5586642175252488e-14 Rpar=0 Cpar=0 Lser=0
L112 Nt111 Nt112 6.690003910683792e-11 Rser=1e-10 Rpar=0 Cpar=0
C112 Nt112 0 1.5545571391311927e-14 Rpar=0 Cpar=0 Lser=0
L113 Nt112 Nt113 6.698401754488581e-11 Rser=1e-10 Rpar=0 Cpar=0
C113 Nt113 0 1.5504352202167578e-14 Rpar=0 Cpar=0 Lser=0
L114 Nt113 Nt114 6.706836350908324e-11 Rser=1e-10 Rpar=0 Cpar=0
C114 Nt114 0 1.5463071819542067e-14 Rpar=0 Cpar=0 Lser=0
L115 Nt114 Nt115 6.715307745951656e-11 Rser=1e-10 Rpar=0 Cpar=0
C115 Nt115 0 1.542173112774747e-14 Rpar=0 Cpar=0 Lser=0
L116 Nt115 Nt116 6.723815985031284e-11 Rser=1e-10 Rpar=0 Cpar=0
C116 Nt116 0 1.5380331013863047e-14 Rpar=0 Cpar=0 Lser=0
L117 Nt116 Nt117 6.732361112957994e-11 Rser=1e-10 Rpar=0 Cpar=0
C117 Nt117 0 1.5338872367682377e-14 Rpar=0 Cpar=0 Lser=0
L118 Nt117 Nt118 6.740943173934608e-11 Rser=1e-10 Rpar=0 Cpar=0
C118 Nt118 0 1.5297356081660124e-14 Rpar=0 Cpar=0 Lser=0
L119 Nt118 Nt119 6.74956221154995e-11 Rser=1e-10 Rpar=0 Cpar=0
C119 Nt119 0 1.5255783050858577e-14 Rpar=0 Cpar=0 Lser=0
L120 Nt119 Nt120 6.758218268772753e-11 Rser=1e-10 Rpar=0 Cpar=0
C120 Nt120 0 1.5214154172894082e-14 Rpar=0 Cpar=0 Lser=0
L121 Nt120 Nt121 6.766911387945575e-11 Rser=1e-10 Rpar=0 Cpar=0
C121 Nt121 0 1.5172470347882948e-14 Rpar=0 Cpar=0 Lser=0
L122 Nt121 Nt122 6.775641610778656e-11 Rser=1e-10 Rpar=0 Cpar=0
C122 Nt122 0 1.513073247838748e-14 Rpar=0 Cpar=0 Lser=0
L123 Nt122 Nt123 6.784408978343775e-11 Rser=1e-10 Rpar=0 Cpar=0
C123 Nt123 0 1.508894146936152e-14 Rpar=0 Cpar=0 Lser=0
L124 Nt123 Nt124 6.793213531068092e-11 Rser=1e-10 Rpar=0 Cpar=0
C124 Nt124 0 1.504709822809583e-14 Rpar=0 Cpar=0 Lser=0
L125 Nt124 Nt125 6.80205530872793e-11 Rser=1e-10 Rpar=0 Cpar=0
C125 Nt125 0 1.5005203664163352e-14 Rpar=0 Cpar=0 Lser=0
L126 Nt125 Nt126 6.810934350442571e-11 Rser=1e-10 Rpar=0 Cpar=0
C126 Nt126 0 1.496325868936416e-14 Rpar=0 Cpar=0 Lser=0
L127 Nt126 Nt127 6.819850694668012e-11 Rser=1e-10 Rpar=0 Cpar=0
C127 Nt127 0 1.492126421767026e-14 Rpar=0 Cpar=0 Lser=0
L128 Nt127 Nt128 6.828804379190713e-11 Rser=1e-10 Rpar=0 Cpar=0
C128 Nt128 0 1.48792211651701e-14 Rpar=0 Cpar=0 Lser=0
L129 Nt128 Nt129 6.837795441121298e-11 Rser=1e-10 Rpar=0 Cpar=0
C129 Nt129 0 1.4837130450013064e-14 Rpar=0 Cpar=0 Lser=0
L130 Nt129 Nt130 6.846823916888258e-11 Rser=1e-10 Rpar=0 Cpar=0
C130 Nt130 0 1.4794992992353637e-14 Rpar=0 Cpar=0 Lser=0
L131 Nt130 Nt131 6.855889842231632e-11 Rser=1e-10 Rpar=0 Cpar=0
C131 Nt131 0 1.4752809714295364e-14 Rpar=0 Cpar=0 Lser=0
L132 Nt131 Nt132 6.864961831799206e-11 Rser=1e-10 Rpar=0 Cpar=0
C132 Nt132 0 1.471051421095306e-14 Rpar=0 Cpar=0 Lser=0
L133 Nt132 Nt133 6.874047155684672e-11 Rser=1e-10 Rpar=0 Cpar=0
C133 Nt133 0 1.466812369634673e-14 Rpar=0 Cpar=0 Lser=0
L134 Nt133 Nt134 6.883169655958723e-11 Rser=1e-10 Rpar=0 Cpar=0
C134 Nt134 0 1.462569033929306e-14 Rpar=0 Cpar=0 Lser=0
L135 Nt134 Nt135 6.8923293635284e-11 Rser=1e-10 Rpar=0 Cpar=0
C135 Nt135 0 1.4583215073947636e-14 Rpar=0 Cpar=0 Lser=0
L136 Nt135 Nt136 6.901526308575328e-11 Rser=1e-10 Rpar=0 Cpar=0
C136 Nt136 0 1.4540698836124753e-14 Rpar=0 Cpar=0 Lser=0
L137 Nt136 Nt137 6.910760520549333e-11 Rser=1e-10 Rpar=0 Cpar=0
C137 Nt137 0 1.4498142563240153e-14 Rpar=0 Cpar=0 Lser=0
L138 Nt137 Nt138 6.920032028162087e-11 Rser=1e-10 Rpar=0 Cpar=0
C138 Nt138 0 1.445554719425338e-14 Rpar=0 Cpar=0 Lser=0
L139 Nt138 Nt139 6.929340859380692e-11 Rser=1e-10 Rpar=0 Cpar=0
C139 Nt139 0 1.4412913669610318e-14 Rpar=0 Cpar=0 Lser=0
L140 Nt139 Nt140 6.938687041421312e-11 Rser=1e-10 Rpar=0 Cpar=0
C140 Nt140 0 1.4370242931185208e-14 Rpar=0 Cpar=0 Lser=0
L141 Nt140 Nt141 6.948070600742713e-11 Rser=1e-10 Rpar=0 Cpar=0
C141 Nt141 0 1.4327535922222864e-14 Rpar=0 Cpar=0 Lser=0
L142 Nt141 Nt142 6.957491563039874e-11 Rser=1e-10 Rpar=0 Cpar=0
C142 Nt142 0 1.42847935872806e-14 Rpar=0 Cpar=0 Lser=0
L143 Nt142 Nt143 6.966949953237509e-11 Rser=1e-10 Rpar=0 Cpar=0
C143 Nt143 0 1.4242016872170055e-14 Rpar=0 Cpar=0 Lser=0
L144 Nt143 Nt144 6.976445795483631e-11 Rser=1e-10 Rpar=0 Cpar=0
C144 Nt144 0 1.4199206723898997e-14 Rpar=0 Cpar=0 Lser=0
L145 Nt144 Nt145 6.985979113143077e-11 Rser=1e-10 Rpar=0 Cpar=0
C145 Nt145 0 1.4156364090612924e-14 Rpar=0 Cpar=0 Lser=0
L146 Nt145 Nt146 6.995549928791024e-11 Rser=1e-10 Rpar=0 Cpar=0
C146 Nt146 0 1.4113489921536626e-14 Rpar=0 Cpar=0 Lser=0
L147 Nt146 Nt147 7.005158264206513e-11 Rser=1e-10 Rpar=0 Cpar=0
C147 Nt147 0 1.4070585166915637e-14 Rpar=0 Cpar=0 Lser=0
L148 Nt147 Nt148 7.014804140365919e-11 Rser=1e-10 Rpar=0 Cpar=0
C148 Nt148 0 1.4027650777957642e-14 Rpar=0 Cpar=0 Lser=0
L149 Nt148 Nt149 7.024487577436487e-11 Rser=1e-10 Rpar=0 Cpar=0
C149 Nt149 0 1.3984687706773705e-14 Rpar=0 Cpar=0 Lser=0
L150 Nt149 Nt150 7.034208594769773e-11 Rser=1e-10 Rpar=0 Cpar=0
C150 Nt150 0 1.3941696906319542e-14 Rpar=0 Cpar=0 Lser=0
L151 Nt150 Nt151 7.043947359069767e-11 Rser=1e-10 Rpar=0 Cpar=0
C151 Nt151 0 1.3898640160058499e-14 Rpar=0 Cpar=0 Lser=0
L152 Nt151 Nt152 7.053678670197648e-11 Rser=1e-10 Rpar=0 Cpar=0
C152 Nt152 0 1.3855469413930142e-14 Rpar=0 Cpar=0 Lser=0
L153 Nt152 Nt153 7.063447185194174e-11 Rser=1e-10 Rpar=0 Cpar=0
C153 Nt153 0 1.3812274108576355e-14 Rpar=0 Cpar=0 Lser=0
L154 Nt153 Nt154 7.073252917909506e-11 Rser=1e-10 Rpar=0 Cpar=0
C154 Nt154 0 1.3769055204766226e-14 Rpar=0 Cpar=0 Lser=0
L155 Nt154 Nt155 7.083095881342111e-11 Rser=1e-10 Rpar=0 Cpar=0
C155 Nt155 0 1.3725813663801667e-14 Rpar=0 Cpar=0 Lser=0
L156 Nt155 Nt156 7.092976087632324e-11 Rser=1e-10 Rpar=0 Cpar=0
C156 Nt156 0 1.3682550447457873e-14 Rpar=0 Cpar=0 Lser=0
L157 Nt156 Nt157 7.102893548055909e-11 Rser=1e-10 Rpar=0 Cpar=0
C157 Nt157 0 1.3639266517923742e-14 Rpar=0 Cpar=0 Lser=0
L158 Nt157 Nt158 7.112848273017587e-11 Rser=1e-10 Rpar=0 Cpar=0
C158 Nt158 0 1.359596283774235e-14 Rpar=0 Cpar=0 Lser=0
L159 Nt158 Nt159 7.122840272044617e-11 Rser=1e-10 Rpar=0 Cpar=0
C159 Nt159 0 1.3552640369751238e-14 Rpar=0 Cpar=0 Lser=0
L160 Nt159 Nt160 7.132869553780336e-11 Rser=1e-10 Rpar=0 Cpar=0
C160 Nt160 0 1.350930007702287e-14 Rpar=0 Cpar=0 Lser=0
L161 Nt160 Nt161 7.142936125977693e-11 Rser=1e-10 Rpar=0 Cpar=0
C161 Nt161 0 1.3465942922805014e-14 Rpar=0 Cpar=0 Lser=0
L162 Nt161 Nt162 7.153039995492838e-11 Rser=1e-10 Rpar=0 Cpar=0
C162 Nt162 0 1.3422569870461035e-14 Rpar=0 Cpar=0 Lser=0
L163 Nt162 Nt163 7.163181168278655e-11 Rser=1e-10 Rpar=0 Cpar=0
C163 Nt163 0 1.3379181883410357e-14 Rpar=0 Cpar=0 Lser=0
L164 Nt163 Nt164 7.173359649378309e-11 Rser=1e-10 Rpar=0 Cpar=0
C164 Nt164 0 1.3335779925068863e-14 Rpar=0 Cpar=0 Lser=0
L165 Nt164 Nt165 7.183575442918827e-11 Rser=1e-10 Rpar=0 Cpar=0
C165 Nt165 0 1.3292364958789251e-14 Rpar=0 Cpar=0 Lser=0
L166 Nt165 Nt166 7.19382855210467e-11 Rser=1e-10 Rpar=0 Cpar=0
C166 Nt166 0 1.3248937947801472e-14 Rpar=0 Cpar=0 Lser=0
L167 Nt166 Nt167 7.204118979211279e-11 Rser=1e-10 Rpar=0 Cpar=0
C167 Nt167 0 1.3205499855153277e-14 Rpar=0 Cpar=0 Lser=0
L168 Nt167 Nt168 7.214446725578674e-11 Rser=1e-10 Rpar=0 Cpar=0
C168 Nt168 0 1.3162051643650639e-14 Rpar=0 Cpar=0 Lser=0
L169 Nt168 Nt169 7.224811791605025e-11 Rser=1e-10 Rpar=0 Cpar=0
C169 Nt169 0 1.3118594275798343e-14 Rpar=0 Cpar=0 Lser=0
L170 Nt169 Nt170 7.235202805488901e-11 Rser=1e-10 Rpar=0 Cpar=0
C170 Nt170 0 1.3075108164165815e-14 Rpar=0 Cpar=0 Lser=0
L171 Nt170 Nt171 7.245567260713521e-11 Rser=1e-10 Rpar=0 Cpar=0
C171 Nt171 0 1.3031500131197662e-14 Rpar=0 Cpar=0 Lser=0
L172 Nt171 Nt172 7.255968545735431e-11 Rser=1e-10 Rpar=0 Cpar=0
C172 Nt172 0 1.298788625067873e-14 Rpar=0 Cpar=0 Lser=0
L173 Nt172 Nt173 7.266406654837037e-11 Rser=1e-10 Rpar=0 Cpar=0
C173 Nt173 0 1.2944267488366804e-14 Rpar=0 Cpar=0 Lser=0
L174 Nt173 Nt174 7.27688158132624e-11 Rser=1e-10 Rpar=0 Cpar=0
C174 Nt174 0 1.2900644809394675e-14 Rpar=0 Cpar=0 Lser=0
L175 Nt174 Nt175 7.287393317530188e-11 Rser=1e-10 Rpar=0 Cpar=0
C175 Nt175 0 1.2857019178210821e-14 Rpar=0 Cpar=0 Lser=0
L176 Nt175 Nt176 7.297941854789124e-11 Rser=1e-10 Rpar=0 Cpar=0
C176 Nt176 0 1.281339155851982e-14 Rpar=0 Cpar=0 Lser=0
L177 Nt176 Nt177 7.30852718345019e-11 Rser=1e-10 Rpar=0 Cpar=0
C177 Nt177 0 1.2769762913223056e-14 Rpar=0 Cpar=0 Lser=0
L178 Nt177 Nt178 7.319149292861263e-11 Rser=1e-10 Rpar=0 Cpar=0
C178 Nt178 0 1.2726134204359526e-14 Rpar=0 Cpar=0 Lser=0
L179 Nt178 Nt179 7.329808171364841e-11 Rser=1e-10 Rpar=0 Cpar=0
C179 Nt179 0 1.268250639304661e-14 Rpar=0 Cpar=0 Lser=0
L180 Nt179 Nt180 7.340503806291874e-11 Rser=1e-10 Rpar=0 Cpar=0
C180 Nt180 0 1.2638880439421213e-14 Rpar=0 Cpar=0 Lser=0
L181 Nt180 Nt181 7.351236183955707e-11 Rser=1e-10 Rpar=0 Cpar=0
C181 Nt181 0 1.2595257302580662e-14 Rpar=0 Cpar=0 Lser=0
L182 Nt181 Nt182 7.362005289645941e-11 Rser=1e-10 Rpar=0 Cpar=0
C182 Nt182 0 1.2551637940524147e-14 Rpar=0 Cpar=0 Lser=0
L183 Nt182 Nt183 7.372811107622423e-11 Rser=1e-10 Rpar=0 Cpar=0
C183 Nt183 0 1.2508023310093875e-14 Rpar=0 Cpar=0 Lser=0
L184 Nt183 Nt184 7.383653621109166e-11 Rser=1e-10 Rpar=0 Cpar=0
C184 Nt184 0 1.2464414366916707e-14 Rpar=0 Cpar=0 Lser=0
L185 Nt184 Nt185 7.394532812288341e-11 Rser=1e-10 Rpar=0 Cpar=0
C185 Nt185 0 1.2420812065345704e-14 Rpar=0 Cpar=0 Lser=0
L186 Nt185 Nt186 7.405448662294275e-11 Rser=1e-10 Rpar=0 Cpar=0
C186 Nt186 0 1.2377217358401949e-14 Rpar=0 Cpar=0 Lser=0
L187 Nt186 Nt187 7.416401151207488e-11 Rser=1e-10 Rpar=0 Cpar=0
C187 Nt187 0 1.2333631197716463e-14 Rpar=0 Cpar=0 Lser=0
L188 Nt187 Nt188 7.427390258048746e-11 Rser=1e-10 Rpar=0 Cpar=0
C188 Nt188 0 1.2290054533472285e-14 Rpar=0 Cpar=0 Lser=0
L189 Nt188 Nt189 7.438415960773122e-11 Rser=1e-10 Rpar=0 Cpar=0
C189 Nt189 0 1.2246488314346789e-14 Rpar=0 Cpar=0 Lser=0
L190 Nt189 Nt190 7.44941039517262e-11 Rser=1e-10 Rpar=0 Cpar=0
C190 Nt190 0 1.220282235747943e-14 Rpar=0 Cpar=0 Lser=0
L191 Nt190 Nt191 7.460429098131143e-11 Rser=1e-10 Rpar=0 Cpar=0
C191 Nt191 0 1.2159149846673022e-14 Rpar=0 Cpar=0 Lser=0
L192 Nt191 Nt192 7.471483823193234e-11 Rser=1e-10 Rpar=0 Cpar=0
C192 Nt192 0 1.211549112621723e-14 Rpar=0 Cpar=0 Lser=0
L193 Nt192 Nt193 7.482574541850952e-11 Rser=1e-10 Rpar=0 Cpar=0
C193 Nt193 0 1.2071847142638915e-14 Rpar=0 Cpar=0 Lser=0
L194 Nt193 Nt194 7.493701224504244e-11 Rser=1e-10 Rpar=0 Cpar=0
C194 Nt194 0 1.2028218840637624e-14 Rpar=0 Cpar=0 Lser=0
L195 Nt194 Nt195 7.504863840455376e-11 Rser=1e-10 Rpar=0 Cpar=0
C195 Nt195 0 1.1984607163028603e-14 Rpar=0 Cpar=0 Lser=0
L196 Nt195 Nt196 7.516062357903406e-11 Rser=1e-10 Rpar=0 Cpar=0
C196 Nt196 0 1.1941013050686034e-14 Rpar=0 Cpar=0 Lser=0
L197 Nt196 Nt197 7.527296743938707e-11 Rser=1e-10 Rpar=0 Cpar=0
C197 Nt197 0 1.1897437442486358e-14 Rpar=0 Cpar=0 Lser=0
L198 Nt197 Nt198 7.538566964537513e-11 Rser=1e-10 Rpar=0 Cpar=0
C198 Nt198 0 1.185388127525197e-14 Rpar=0 Cpar=0 Lser=0
L199 Nt198 Nt199 7.549872984556493e-11 Rser=1e-10 Rpar=0 Cpar=0
C199 Nt199 0 1.1810345483695056e-14 Rpar=0 Cpar=0 Lser=0
L200 Nt199 Nt200 7.561214767727396e-11 Rser=1e-10 Rpar=0 Cpar=0
C200 Nt200 0 1.176683100036166e-14 Rpar=0 Cpar=0 Lser=0
L201 Nt200 Nt201 7.572592276651714e-11 Rser=1e-10 Rpar=0 Cpar=0
C201 Nt201 0 1.1723338755576022e-14 Rpar=0 Cpar=0 Lser=0
L202 Nt201 Nt202 7.584005472795378e-11 Rser=1e-10 Rpar=0 Cpar=0
C202 Nt202 0 1.167986967738518e-14 Rpar=0 Cpar=0 Lser=0
L203 Nt202 Nt203 7.595454316483516e-11 Rser=1e-10 Rpar=0 Cpar=0
C203 Nt203 0 1.1636424691503772e-14 Rpar=0 Cpar=0 Lser=0
L204 Nt203 Nt204 7.606938766895256e-11 Rser=1e-10 Rpar=0 Cpar=0
C204 Nt204 0 1.1593004721259056e-14 Rpar=0 Cpar=0 Lser=0
L205 Nt204 Nt205 7.618458782058557e-11 Rser=1e-10 Rpar=0 Cpar=0
C205 Nt205 0 1.154961068753632e-14 Rpar=0 Cpar=0 Lser=0
L206 Nt205 Nt206 7.630014318845087e-11 Rser=1e-10 Rpar=0 Cpar=0
C206 Nt206 0 1.1506243508724462e-14 Rpar=0 Cpar=0 Lser=0
L207 Nt206 Nt207 7.641605332965174e-11 Rser=1e-10 Rpar=0 Cpar=0
C207 Nt207 0 1.1462904100661825e-14 Rpar=0 Cpar=0 Lser=0
L208 Nt207 Nt208 7.653231778962763e-11 Rser=1e-10 Rpar=0 Cpar=0
C208 Nt208 0 1.1419593376582389e-14 Rpar=0 Cpar=0 Lser=0
L209 Nt208 Nt209 7.664887535111013e-11 Rser=1e-10 Rpar=0 Cpar=0
C209 Nt209 0 1.1376303230338444e-14 Rpar=0 Cpar=0 Lser=0
L210 Nt209 Nt210 7.676538167620897e-11 Rser=1e-10 Rpar=0 Cpar=0
C210 Nt210 0 1.1332983949169463e-14 Rpar=0 Cpar=0 Lser=0
L211 Nt210 Nt211 7.688224583642126e-11 Rser=1e-10 Rpar=0 Cpar=0
C211 Nt211 0 1.1289697535224049e-14 Rpar=0 Cpar=0 Lser=0
L212 Nt211 Nt212 7.699951440741948e-11 Rser=1e-10 Rpar=0 Cpar=0
C212 Nt212 0 1.1246451752182345e-14 Rpar=0 Cpar=0 Lser=0
L213 Nt212 Nt213 7.711711284635668e-11 Rser=1e-10 Rpar=0 Cpar=0
C213 Nt213 0 1.1203236619588218e-14 Rpar=0 Cpar=0 Lser=0
L214 Nt213 Nt214 7.723490510667533e-11 Rser=1e-10 Rpar=0 Cpar=0
C214 Nt214 0 1.1160033500735364e-14 Rpar=0 Cpar=0 Lser=0
L215 Nt214 Nt215 7.735303806749034e-11 Rser=1e-10 Rpar=0 Cpar=0
C215 Nt215 0 1.1116864840433205e-14 Rpar=0 Cpar=0 Lser=0
L216 Nt215 Nt216 7.74714512075471e-11 Rser=1e-10 Rpar=0 Cpar=0
C216 Nt216 0 1.107372297649835e-14 Rpar=0 Cpar=0 Lser=0
L217 Nt216 Nt217 7.759019998326842e-11 Rser=1e-10 Rpar=0 Cpar=0
C217 Nt217 0 1.1030616918952013e-14 Rpar=0 Cpar=0 Lser=0
L218 Nt217 Nt218 7.770913593875395e-11 Rser=1e-10 Rpar=0 Cpar=0
C218 Nt218 0 1.0987526670660573e-14 Rpar=0 Cpar=0 Lser=0
L219 Nt218 Nt219 7.782841647669139e-11 Rser=1e-10 Rpar=0 Cpar=0
C219 Nt219 0 1.0944475698986666e-14 Rpar=0 Cpar=0 Lser=0
L220 Nt219 Nt220 7.79480890239001e-11 Rser=1e-10 Rpar=0 Cpar=0
C220 Nt220 0 1.0901471601731024e-14 Rpar=0 Cpar=0 Lser=0
L221 Nt220 Nt221 7.806810412911069e-11 Rser=1e-10 Rpar=0 Cpar=0
C221 Nt221 0 1.0858508353216513e-14 Rpar=0 Cpar=0 Lser=0
L222 Nt221 Nt222 7.818841703432541e-11 Rser=1e-10 Rpar=0 Cpar=0
C222 Nt222 0 1.0815580724984735e-14 Rpar=0 Cpar=0 Lser=0
L223 Nt222 Nt223 7.830906975158698e-11 Rser=1e-10 Rpar=0 Cpar=0
C223 Nt223 0 1.0772695557745257e-14 Rpar=0 Cpar=0 Lser=0
L224 Nt223 Nt224 7.842991928553566e-11 Rser=1e-10 Rpar=0 Cpar=0
C224 Nt224 0 1.072983424990395e-14 Rpar=0 Cpar=0 Lser=0
L225 Nt224 Nt225 7.855109448979245e-11 Rser=1e-10 Rpar=0 Cpar=0
C225 Nt225 0 1.068701561404153e-14 Rpar=0 Cpar=0 Lser=0
L226 Nt225 Nt226 7.867252081449922e-11 Rser=1e-10 Rpar=0 Cpar=0
C226 Nt226 0 1.064423054820055e-14 Rpar=0 Cpar=0 Lser=0
L227 Nt226 Nt227 7.879426851214018e-11 Rser=1e-10 Rpar=0 Cpar=0
C227 Nt227 0 1.0601489652942898e-14 Rpar=0 Cpar=0 Lser=0
L228 Nt227 Nt228 7.891634426517317e-11 Rser=1e-10 Rpar=0 Cpar=0
C228 Nt228 0 1.0558794807474446e-14 Rpar=0 Cpar=0 Lser=0
L229 Nt228 Nt229 7.903875290345059e-11 Rser=1e-10 Rpar=0 Cpar=0
C229 Nt229 0 1.0516147620120792e-14 Rpar=0 Cpar=0 Lser=0
L230 Nt229 Nt230 7.916142825512909e-11 Rser=1e-10 Rpar=0 Cpar=0
C230 Nt230 0 1.0473540286460976e-14 Rpar=0 Cpar=0 Lser=0
L231 Nt230 Nt231 7.928440568426787e-11 Rser=1e-10 Rpar=0 Cpar=0
C231 Nt231 0 1.0430978552549371e-14 Rpar=0 Cpar=0 Lser=0
L232 Nt231 Nt232 7.940775914952959e-11 Rser=1e-10 Rpar=0 Cpar=0
C232 Nt232 0 1.0388473103499367e-14 Rpar=0 Cpar=0 Lser=0
L233 Nt232 Nt233 7.953147536899012e-11 Rser=1e-10 Rpar=0 Cpar=0
C233 Nt233 0 1.0346023052442791e-14 Rpar=0 Cpar=0 Lser=0
L234 Nt233 Nt234 7.965540326329738e-11 Rser=1e-10 Rpar=0 Cpar=0
C234 Nt234 0 1.0303609723138317e-14 Rpar=0 Cpar=0 Lser=0
L235 Nt234 Nt235 7.977952904810526e-11 Rser=1e-10 Rpar=0 Cpar=0
C235 Nt235 0 1.0261232536575937e-14 Rpar=0 Cpar=0 Lser=0
L236 Nt235 Nt236 7.99040117388503e-11 Rser=1e-10 Rpar=0 Cpar=0
C236 Nt236 0 1.0218913046816375e-14 Rpar=0 Cpar=0 Lser=0
L237 Nt236 Nt237 8.002887446429957e-11 Rser=1e-10 Rpar=0 Cpar=0
C237 Nt237 0 1.0176655058680791e-14 Rpar=0 Cpar=0 Lser=0
L238 Nt237 Nt238 8.015404165462954e-11 Rser=1e-10 Rpar=0 Cpar=0
C238 Nt238 0 1.0134449826190277e-14 Rpar=0 Cpar=0 Lser=0
L239 Nt238 Nt239 8.027945505756771e-11 Rser=1e-10 Rpar=0 Cpar=0
C239 Nt239 0 1.0092290994614931e-14 Rpar=0 Cpar=0 Lser=0
L240 Nt239 Nt240 8.040519808215731e-11 Rser=1e-10 Rpar=0 Cpar=0
C240 Nt240 0 1.0050190078451592e-14 Rpar=0 Cpar=0 Lser=0
L241 Nt240 Nt241 8.053132897401104e-11 Rser=1e-10 Rpar=0 Cpar=0
C241 Nt241 0 1.0008155219136594e-14 Rpar=0 Cpar=0 Lser=0
L242 Nt241 Nt242 8.06577830560808e-11 Rser=1e-10 Rpar=0 Cpar=0
C242 Nt242 0 9.966179197780072e-15 Rpar=0 Cpar=0 Lser=0
L243 Nt242 Nt243 8.078435530720975e-11 Rser=1e-10 Rpar=0 Cpar=0
C243 Nt243 0 9.924237734433811e-15 Rpar=0 Cpar=0 Lser=0
L244 Nt243 Nt244 8.091122820074241e-11 Rser=1e-10 Rpar=0 Cpar=0
C244 Nt244 0 9.882354454112676e-15 Rpar=0 Cpar=0 Lser=0
L245 Nt244 Nt245 8.103849486590228e-11 Rser=1e-10 Rpar=0 Cpar=0
C245 Nt245 0 9.840541607576092e-15 Rpar=0 Cpar=0 Lser=0
L246 Nt245 Nt246 8.116610662159264e-11 Rser=1e-10 Rpar=0 Cpar=0
C246 Nt246 0 9.798794056897897e-15 Rpar=0 Cpar=0 Lser=0
L247 Nt246 Nt247 8.129399607563466e-11 Rser=1e-10 Rpar=0 Cpar=0
C247 Nt247 0 9.757104550706111e-15 Rpar=0 Cpar=0 Lser=0
L248 Nt247 Nt248 8.142216924396159e-11 Rser=1e-10 Rpar=0 Cpar=0
C248 Nt248 0 9.715474780278017e-15 Rpar=0 Cpar=0 Lser=0
L249 Nt248 Nt249 8.155061371398771e-11 Rser=1e-10 Rpar=0 Cpar=0
C249 Nt249 0 9.673904227620266e-15 Rpar=0 Cpar=0 Lser=0
L250 Nt249 Nt250 8.167928907349383e-11 Rser=1e-10 Rpar=0 Cpar=0
C250 Nt250 0 9.632389100899465e-15 Rpar=0 Cpar=0 Lser=0
L251 Nt250 Nt251 8.180828947041145e-11 Rser=1e-10 Rpar=0 Cpar=0
C251 Nt251 0 9.590941489019243e-15 Rpar=0 Cpar=0 Lser=0