** Auto-generated by spice_daemon **

.subckt noise_source_1 in out

** NOISE SOURCE **
v out in PWL file=/Users/torque/programs/spice-daemon/.spice-daemon-data/noise_data_noise_source_1.csv

.ends noise_source_1

.subckt taper_1 Zlow Zhigh
** TAPER **
L1 Nt0 Nt1 2.7548663353232448e-08
C1 Nt1 0 8.67164086639131e-12
L2 Nt1 Nt2 2.7672755082561582e-08
C2 Nt2 0 8.707866951887799e-12
L3 Nt2 Nt3 2.7798051602219393e-08
C3 Nt3 0 8.744445215635606e-12
L4 Nt3 Nt4 2.7924570437412624e-08
C4 Nt4 0 8.781380781009869e-12
L5 Nt4 Nt5 2.762192766253321e-08
C5 Nt5 0 8.683375484091337e-12
L6 Nt5 Nt6 2.6655946427802695e-08
C6 Nt6 0 8.376968422686805e-12
L7 Nt6 Nt7 2.575468213635455e-08
C7 Nt7 0 8.0910898612921e-12
L8 Nt7 Nt8 2.4911842594172044e-08
C8 Nt8 0 7.82374388859823e-12
L9 Nt8 Nt9 2.4121925690618416e-08
C9 Nt9 0 7.573185211180498e-12
L10 Nt9 Nt10 2.3380099163623108e-08
C10 Nt10 0 7.337881014492672e-12
L11 Nt10 Nt11 2.2682101673102954e-08
C11 Nt11 0 7.1164795829259264e-12
L12 Nt11 Nt12 2.2024160903388998e-08
C12 Nt12 0 6.907784321542453e-12
L13 Nt12 Nt13 2.1402925370096295e-08
C13 Nt13 0 6.710732124917982e-12
L14 Nt13 Nt14 2.081540732861713e-08
C14 Nt14 0 6.524375267467526e-12
L15 Nt14 Nt15 2.0258934731353477e-08
C15 Nt15 0 6.347866164070579e-12
L16 Nt15 Nt16 1.973111060361066e-08
C16 Nt16 0 6.180444483927901e-12
L17 Nt16 Nt17 1.9229778535103624e-08
C17 Nt17 0 6.02142620431723e-12
L18 Nt17 Nt18 1.8038843085328607e-08
C18 Nt18 0 5.646645951382708e-12
L19 Nt18 Nt19 1.6903387135747754e-08
C19 Nt19 0 5.289471624431094e-12
L20 Nt19 Nt20 1.59018066752834e-08
C20 Nt20 0 4.974410067913037e-12
L21 Nt20 Nt21 1.5011743686201994e-08
C21 Nt21 0 4.6944281942805025e-12
L22 Nt21 Nt22 1.4215556180823873e-08
C22 Nt22 0 4.443976421931334e-12
L23 Nt22 Nt23 1.3499137033839154e-08
C23 Nt23 0 4.218617119205071e-12
L24 Nt23 Nt24 1.2851070879897642e-08
C24 Nt24 0 4.01475939245171e-12
L25 Nt24 Nt25 1.2262021331147408e-08
C25 Nt25 0 3.8294663250834775e-12
L26 Nt25 Nt26 1.1724278305732847e-08
C26 Nt26 0 3.660312582200547e-12
L27 Nt26 Nt27 1.1231418696873498e-08
C27 Nt27 0 3.5052776683876483e-12
L28 Nt27 Nt28 1.0778048600697002e-08
C28 Nt28 0 3.362664841177698e-12
L29 Nt28 Nt29 1.0359605113770153e-08
C29 Nt29 0 3.231038763157955e-12
L30 Nt29 Nt30 9.972202235371323e-09
C30 Nt30 0 3.1091770279585098e-12
L31 Nt30 Nt31 9.612509833898592e-09
C31 Nt31 0 2.9960320871163777e-12
L32 Nt31 Nt32 9.27765768632376e-09
C32 Nt32 0 2.8907010640845452e-12
L33 Nt32 Nt33 8.965158733195746e-09
C33 Nt33 0 2.7924016128127072e-12
L34 Nt33 Nt34 8.672847205058723e-09
C34 Nt34 0 2.7004524543796637e-12
L35 Nt34 Nt35 8.398828363440701e-09
C35 Nt35 0 2.6142575671826444e-12
L36 Nt35 Nt36 8.141437389988797e-09
C36 Nt36 0 2.5332932548288254e-12
L37 Nt36 Nt37 7.899205538264498e-09
C37 Nt37 0 2.457097498617737e-12
L38 Nt37 Nt38 7.684985591281403e-09
C38 Nt38 0 2.3896621964849584e-12
L39 Nt38 Nt39 7.831801922310828e-09
C39 Nt39 0 2.434498521513956e-12
L40 Nt39 Nt40 7.984434738513005e-09
C40 Nt40 0 2.4811112860491826e-12
L41 Nt40 Nt41 8.143236545726688e-09
C41 Nt41 0 2.5296081506582547e-12
L42 Nt41 Nt42 8.308588921847833e-09
C42 Nt42 0 2.5801056549508193e-12
L43 Nt42 Nt43 8.480905576983461e-09
C43 Nt43 0 2.6327301521954096e-12
L44 Nt43 Nt44 8.660635808452928e-09
C44 Nt44 0 2.687618864528625e-12
L45 Nt44 Nt45 8.848268411392762e-09
C45 Nt45 0 2.74492107731246e-12
L46 Nt45 Nt46 9.044336116606487e-09
C46 Nt46 0 2.804799494520158e-12
L47 Nt46 Nt47 9.249420640535252e-09
C47 Nt47 0 2.867431781072939e-12
L48 Nt47 Nt48 9.464158448133515e-09
C48 Nt48 0 2.93301232290861e-12
L49 Nt48 Nt49 9.689247348924477e-09
C49 Nt49 0 3.0017542415157634e-12
L50 Nt49 Nt50 9.925454070219665e-09
C50 Nt50 0 3.0738917069085516e-12
L51 Nt50 Nt51 1.0173622980665037e-08
C51 Nt51 0 3.1496826019284232e-12
L52 Nt51 Nt52 1.043468617328287e-08
C52 Nt52 0 3.2294116017562525e-12
L53 Nt52 Nt53 1.0709675161745149e-08
C53 Nt53 0 3.3133937461295428e-12
L54 Nt53 Nt54 1.0999734499270773e-08
C54 Nt54 0 3.4019785987577702e-12
L55 Nt54 Nt55 1.1306137699249079e-08
C55 Nt55 0 3.4955551097194353e-12
L56 Nt55 Nt56 1.1630305924588756e-08
C56 Nt56 0 3.594557323469361e-12
L57 Nt56 Nt57 1.1973830024310799e-08
C57 Nt57 0 3.69947110914448e-12
L58 Nt57 Nt58 1.233849663831154e-08
C58 Nt58 0 3.810842133349752e-12
L59 Nt58 Nt59 1.272631927431628e-08
C59 Nt59 0 3.929285351525607e-12
L60 Nt59 Nt60 1.3139575498116595e-08
C60 Nt60 0 4.055496366403864e-12
L61 Nt60 Nt61 1.3580851687692047e-08
C61 Nt61 0 4.190265096587318e-12
L62 Nt61 Nt62 1.4053097208910824e-08
C62 Nt62 0 4.334492322620749e-12
L63 Nt62 Nt63 1.4559690410966395e-08
C63 Nt63 0 4.489209842986476e-12
L64 Nt63 Nt64 1.5104519563632274e-08
C64 Nt64 0 4.6556051935551275e-12
L65 Nt64 Nt65 1.569208283782115e-08
C65 Nt65 0 4.8350521831469985e-12
L66 Nt65 Nt66 1.632761277021853e-08
C66 Nt66 0 5.029148906896758e-12
L67 Nt66 Nt67 1.701723250475365e-08
C67 Nt67 0 5.2397654647405465e-12
L68 Nt67 Nt68 1.776815369671497e-08
C68 Nt68 0 5.469104404299235e-12
L69 Nt68 Nt69 1.85889296432913e-08
C69 Nt69 0 5.719778030739825e-12
L70 Nt69 Nt70 1.9489782497639067e-08
C70 Nt70 0 5.9949083428561845e-12
L71 Nt70 Nt71 2.0483031159067426e-08
C71 Nt71 0 6.2982577171451876e-12
L72 Nt71 Nt72 2.158365793105799e-08
C72 Nt72 0 6.63440197365954e-12
L73 Nt72 Nt73 2.2810069451110596e-08
C73 Nt73 0 7.008962775388192e-12
L74 Nt73 Nt74 2.4185134305843292e-08
C74 Nt74 0 7.428924531460605e-12
L75 Nt74 Nt75 2.573762227812078e-08
C75 Nt75 0 7.90307396479254e-12
L76 Nt75 Nt76 2.7504239104181134e-08
C76 Nt76 0 8.442621557411377e-12
L77 Nt76 Nt77 2.7351650296179936e-08
C77 Nt77 0 8.392883020390787e-12
L78 Nt77 Nt78 2.4619046386104112e-08
C78 Nt78 0 7.551768915549229e-12
L79 Nt78 Nt79 2.2381628800089023e-08
C79 Nt79 0 6.8630769465664615e-12
L80 Nt79 Nt80 2.1592345105766162e-08
C80 Nt80 0 6.618759327680284e-12
L81 Nt80 Nt81 2.1076095000755964e-08
C81 Nt81 0 6.458273080044668e-12
L82 Nt81 Nt82 2.0583665030664462e-08
C82 Nt82 0 6.305192157486802e-12
L83 Nt82 Nt83 2.011344411294938e-08
C83 Nt83 0 6.159015698774456e-12
L84 Nt83 Nt84 1.9663963249566894e-08
C84 Nt84 0 6.019287014600074e-12
L85 Nt84 Nt85 1.92338802014815e-08
C85 Nt85 0 5.885588823117348e-12
L86 Nt85 Nt86 1.882196610492331e-08
C86 Nt86 0 5.757539089137748e-12
L87 Nt86 Nt87 1.8427093748324036e-08
C87 Nt87 0 5.6347873796069745e-12
L88 Nt87 Nt88 1.8048227274386745e-08
C88 Nt88 0 5.5170116621339636e-12
L89 Nt88 Nt89 1.768441310916011e-08
C89 Nt89 0 5.4039154849770855e-12
L90 Nt89 Nt90 1.7334771950917567e-08
C90 Nt90 0 5.295225486507651e-12
L91 Nt90 Nt91 1.7012879534090285e-08
C91 Nt91 0 5.1950826912953244e-12
L92 Nt91 Nt92 1.7153340556679123e-08
C92 Nt92 0 5.236143534971947e-12
L93 Nt92 Nt93 1.729622598522288e-08
C93 Nt93 0 5.277913425935371e-12
L94 Nt93 Nt94 1.7441599022438617e-08
C94 Nt94 0 5.320410848901626e-12
L95 Nt94 Nt95 1.758952508726766e-08
C95 Nt95 0 5.363654936759296e-12
L96 Nt95 Nt96 1.7740071912877e-08
C96 Nt96 0 5.407665499231701e-12
L97 Nt96 Nt97 1.7893309649901397e-08
C97 Nt97 0 5.452463053071804e-12
L98 Nt97 Nt98 1.8049310975270554e-08
C98 Nt98 0 5.498068853890579e-12
L99 Nt98 Nt99 1.820815120696543e-08
C99 Nt99 0 5.544504929719443e-12
L100 Nt99 Nt100 1.836990842508178e-08
C100 Nt100 0 5.591794116417359e-12
L101 Nt100 Nt101 1.8534663599622712e-08
C101 Nt101 0 5.63996009504594e-12
L102 Nt101 Nt102 1.8702500725451084e-08
C102 Nt102 0 5.689027431338576e-12
L103 Nt102 Nt103 1.8873506964867352e-08
C103 Nt103 0 5.7390216173997596e-12
L104 Nt103 Nt104 1.9047772798342555e-08
C104 Nt104 0 5.7899691157895144e-12
L105 Nt104 Nt105 1.922539218392921e-08
C105 Nt105 0 5.841897406145824e-12
L106 Nt105 Nt106 1.9406462725958783e-08
C106 Nt106 0 5.894835034523087e-12
L107 Nt106 Nt107 1.9591085853650085e-08
C107 Nt107 0 5.948811665629176e-12
L108 Nt107 Nt108 1.9779367010328775e-08
C108 Nt108 0 6.003858138165919e-12
L109 Nt108 Nt109 1.997141585398239e-08
C109 Nt109 0 6.060006523484819e-12
L110 Nt109 Nt110 2.0167346469966337e-08
C110 Nt110 0 6.117290187796562e-12
L111 Nt110 Nt111 2.0367277596723755e-08
C111 Nt111 0 6.175743858186618e-12
L112 Nt111 Nt112 2.0571332865451473e-08
C112 Nt112 0 6.235403692709652e-12
L113 Nt112 Nt113 2.0779641054743256e-08
C113 Nt113 0 6.296307354864266e-12
L114 Nt113 Nt114 2.0992336361293534e-08
C114 Nt114 0 6.3584940927649245e-12
L115 Nt114 Nt115 2.1209558687871166e-08
C115 Nt115 0 6.422004823364779e-12
L116 Nt115 Nt116 2.1431453949858675e-08
C116 Nt116 0 6.486882222108305e-12
L117 Nt116 Nt117 2.1658174401765247e-08
C117 Nt117 0 6.553170818425579e-12
L118 Nt117 Nt118 2.1889878985255146e-08
C118 Nt118 0 6.620917097519117e-12
L119 Nt118 Nt119 2.212673370034667e-08
C119 Nt119 0 6.690169608927346e-12
L120 Nt119 Nt120 2.23689120016363e-08
C120 Nt120 0 6.760979082407092e-12
L121 Nt120 Nt121 2.261659522149617e-08
C121 Nt121 0 6.833398551704902e-12
L122 Nt121 Nt122 2.2869973022437708e-08
C122 Nt122 0 6.907483486858488e-12
L123 Nt122 Nt123 2.3129243881022817e-08
C123 Nt123 0 6.983291935724809e-12
L124 Nt123 Nt124 2.3394615605883923e-08
C124 Nt124 0 7.0608846754838445e-12
L125 Nt124 Nt125 2.366630589272535e-08
C125 Nt125 0 7.140325374958215e-12
L126 Nt125 Nt126 2.3944542919412283e-08
C126 Nt126 0 7.221680768657079e-12
L127 Nt126 Nt127 2.4229565984547737e-08
C127 Nt127 0 7.30502084353886e-12
L128 Nt127 Nt128 2.4521626193334876e-08
C128 Nt128 0 7.390419039603346e-12
L129 Nt128 Nt129 2.4820987194806487e-08
C129 Nt129 0 7.477952465507029e-12
L130 Nt129 Nt130 2.5127925975012953e-08
C130 Nt130 0 7.567702130544437e-12
L131 Nt130 Nt131 2.5442733711157463e-08
C131 Nt131 0 7.659753194454517e-12
L132 Nt131 Nt132 2.5765716692232726e-08
C132 Nt132 0 7.754195236676544e-12
L133 Nt132 Nt133 2.60971973122579e-08
C133 Nt133 0 7.851122546839174e-12
L134 Nt133 Nt134 2.6437515142908718e-08
C134 Nt134 0 7.950634438469393e-12
L135 Nt134 Nt135 2.6787028093030994e-08
C135 Nt135 0 8.052835588112012e-12
L136 Nt135 Nt136 2.7146113663351044e-08
C136 Nt136 0 8.157836402291094e-12
L137 Nt136 Nt137 2.7515170305655108e-08
C137 Nt137 0 8.265753415025142e-12
L138 Nt137 Nt138 2.7894618896694552e-08
C138 Nt138 0 8.376709718895775e-12
L139 Nt138 Nt139 2.8284904338312246e-08
C139 Nt139 0 8.490835433031962e-12
L140 Nt139 Nt140 2.8686497296543888e-08
C140 Nt140 0 8.608268211739822e-12
L141 Nt140 Nt141 2.909989609402216e-08
C141 Nt141 0 8.729153797968476e-12
L142 Nt141 Nt142 2.4598534360526466e-08
C142 Nt142 0 7.376192813263911e-12
L143 Nt142 Nt143 1.8837957194933005e-08
C143 Nt143 0 5.646756218574784e-12
L144 Nt143 Nt144 1.526185624917805e-08
C144 Nt144 0 4.5731419048029074e-12
L145 Nt144 Nt145 1.4208705378302084e-08
C145 Nt145 0 4.256021334521134e-12
L146 Nt145 Nt146 1.3877402066703878e-08
C146 Nt146 0 4.1552705732993436e-12
L147 Nt146 Nt147 1.356102237869747e-08
C147 Nt147 0 4.059058419670268e-12
L148 Nt147 Nt148 1.3258580385734359e-08
C148 Nt148 0 3.967085030937844e-12
L149 Nt148 Nt149 1.2969175134883677e-08
C149 Nt149 0 3.879076407372212e-12
L150 Nt149 Nt150 1.2691981687035093e-08
C150 Nt150 0 3.794781666728853e-12
L151 Nt150 Nt151 1.2426243265851148e-08
C151 Nt151 0 3.7139706565712195e-12
L152 Nt151 Nt152 1.217126436008819e-08
C152 Nt152 0 3.6364318565338536e-12
L153 Nt152 Nt153 1.1926404646913089e-08
C153 Nt153 0 3.561970530268497e-12
L154 Nt153 Nt154 1.1691073624417304e-08
C154 Nt154 0 3.490407093072813e-12
L155 Nt154 Nt155 1.146472585861222e-08
C155 Nt155 0 3.4215756663964613e-12
L156 Nt155 Nt156 1.1503517001457863e-08
C156 Nt156 0 3.4318933390221248e-12
L157 Nt156 Nt157 1.167055703453594e-08
C157 Nt157 0 3.480449039343928e-12
L158 Nt157 Nt158 1.1842616972152198e-08
C158 Nt158 0 3.530464178924611e-12
L159 Nt158 Nt159 1.2019926423421497e-08
C159 Nt159 0 3.5820055123406932e-12
L160 Nt159 Nt160 1.2202729217384289e-08
C160 Nt160 0 3.6351439283472575e-12
L161 Nt160 Nt161 1.2391284521135473e-08
C161 Nt161 0 3.689954774953102e-12
L162 Nt161 Nt162 1.258586806514724e-08
C162 Nt162 0 3.7465182156605346e-12
L163 Nt162 Nt163 1.278677348795839e-08
C163 Nt163 0 3.804919620408754e-12
L164 Nt163 Nt164 1.2994313814030223e-08
C164 Nt164 0 3.865249995232924e-12
L165 Nt164 Nt165 1.3208823080413345e-08
C165 Nt165 0 3.927606455187265e-12
L166 Nt165 Nt166 1.34306581299942e-08
C166 Nt166 0 3.99209274569808e-12
L167 Nt166 Nt167 1.3660200591581158e-08
C167 Nt167 0 4.058819818236919e-12
L168 Nt167 Nt168 1.3897859069940337e-08
C168 Nt168 0 4.127906467032708e-12
L169 Nt168 Nt169 1.4144071572214378e-08
C169 Nt169 0 4.199480034507826e-12
L170 Nt169 Nt170 1.439930820103987e-08
C170 Nt170 0 4.27367719425184e-12
L171 Nt170 Nt171 1.4664074149200708e-08
C171 Nt171 0 4.350644821661212e-12
L172 Nt171 Nt172 1.4938913035949677e-08
C172 Nt172 0 4.430540963912662e-12
L173 Nt172 Nt173 1.522441063138252e-08
C173 Nt173 0 4.5135359227555785e-12
L174 Nt173 Nt174 1.552119902251593e-08
C174 Nt174 0 4.599813465721612e-12
L175 Nt174 Nt175 1.582996128346898e-08
C175 Nt175 0 4.6895721838929645e-12
L176 Nt175 Nt176 1.6151436722347133e-08
C176 Nt176 0 4.783027017336201e-12
L177 Nt176 Nt177 1.6486426789660553e-08
C177 Nt177 0 4.880410972864848e-12
L178 Nt177 Nt178 1.6835801747681057e-08
C178 Nt178 0 4.9819770630307394e-12
L179 Nt178 Nt179 1.7200508217581944e-08
C179 Nt179 0 5.0880005003143735e-12
L180 Nt179 Nt180 1.758157774215813e-08
C180 Nt180 0 5.1987811865763366e-12
L181 Nt180 Nt181 1.798013652721959e-08
C181 Nt181 0 5.314646545186053e-12
L182 Nt181 Nt182 1.8397416555415507e-08
C182 Nt182 0 5.435954752159186e-12
L183 Nt182 Nt183 1.8834768303458843e-08
C183 Nt183 0 5.56309843345387e-12
L184 Nt183 Nt184 1.9293675339309867e-08
C184 Nt184 0 5.696508908829992e-12
L185 Nt184 Nt185 1.9775771131725777e-08
C185 Nt185 0 5.83666107891272e-12
L186 Nt185 Nt186 2.0282858473497954e-08
C186 Nt186 0 5.98407907213704e-12
L187 Nt186 Nt187 2.0747868132063622e-08
C187 Nt187 0 6.118974431829231e-12
L188 Nt187 Nt188 2.122894462649758e-08
C188 Nt188 0 6.258502659246352e-12
L189 Nt188 Nt189 2.1733138548956694e-08
C189 Nt189 0 6.404736164168106e-12
L190 Nt189 Nt190 2.226215684798818e-08
C190 Nt190 0 6.558170052387443e-12
L191 Nt190 Nt191 2.281787876361273e-08
C191 Nt191 0 6.719349403380645e-12
L192 Nt191 Nt192 2.340237812795769e-08
C192 Nt192 0 6.888875738676053e-12
L193 Nt192 Nt193 2.4017949221675723e-08
C193 Nt193 0 7.067414521589562e-12
L194 Nt193 Nt194 2.466713686579153e-08
C194 Nt194 0 7.255703885459325e-12
L195 Nt194 Nt195 2.5352771580967986e-08
C195 Nt195 0 7.45456483170139e-12
L196 Nt195 Nt196 2.6078010838639195e-08
C196 Nt196 0 7.664913194830472e-12
L197 Nt196 Nt197 2.6846387671986338e-08
C197 Nt197 0 7.887773742226273e-12
L198 Nt197 Nt198 2.7661868225668087e-08
C198 Nt198 0 8.124296866613634e-12
L199 Nt198 Nt199 2.8528920222582522e-08
C199 Nt199 0 8.375778445061989e-12
L200 Nt199 Nt200 2.9452594842656727e-08
C200 Nt200 0 8.643683588185616e-12
L201 Nt200 Nt201 2.7796730768627472e-08
C201 Nt201 0 8.154631684600536e-12
L202 Nt201 Nt202 2.4433191528543364e-08
C202 Nt202 0 7.165162465867974e-12
L203 Nt202 Nt203 1.0118882671454348e-08
C203 Nt203 0 2.9662892462740173e-12
L204 Nt203 Nt204 4.7391974485355226e-09
C204 Nt204 0 1.3887392661791897e-12
L205 Nt204 Nt205 3.1021422493883215e-09
C205 Nt205 0 9.086831543190531e-13
L206 Nt205 Nt206 3.158698208785173e-09
C206 Nt206 0 9.248975724187195e-13
L207 Nt206 Nt207 3.217386299961146e-09
C207 Nt207 0 9.417233343608234e-13
L208 Nt207 Nt208 3.278329366361118e-09
C208 Nt208 0 9.59195662970252e-13
L209 Nt208 Nt209 3.3416598731350727e-09
C209 Nt209 0 9.773525398974012e-13
L210 Nt209 Nt210 3.4075208679773757e-09
C210 Nt210 0 9.962349811190202e-13
L211 Nt210 Nt211 3.47606705945311e-09
C211 Nt211 0 1.015887346126053e-12
L212 Nt211 Nt212 3.547466029921533e-09
C212 Nt212 0 1.0363576857044216e-12
L213 Nt212 Nt213 3.62189960307146e-09
C213 Nt213 0 1.0576981340475973e-12
L214 Nt213 Nt214 3.699565389562771e-09
C214 Nt214 0 1.0799653519374232e-12
L215 Nt214 Nt215 3.780678538439066e-09
C215 Nt215 0 1.103221028925576e-12
L216 Nt215 Nt216 3.865473726989177e-09
C216 Nt216 0 1.1275324538853153e-12
L217 Nt216 Nt217 3.954207427820689e-09
C217 Nt217 0 1.1529731650480617e-12
L218 Nt217 Nt218 4.047160499267918e-09
C218 Nt218 0 1.179623692749461e-12
L219 Nt218 Nt219 4.144641154239605e-09
C219 Nt219 0 1.2075724106852338e-12
L220 Nt219 Nt220 4.246988373629418e-09
C220 Nt220 0 1.2369165146362405e-12
L221 Nt220 Nt221 4.3545758439316024e-09
C221 Nt221 0 1.2677631514985621e-12
L222 Nt221 Nt222 4.467816515454298e-09
C222 Nt222 0 1.300230726257163e-12
L223 Nt222 Nt223 4.58716789832005e-09
C223 Nt223 0 1.334450420504817e-12
L224 Nt223 Nt224 4.713138239438589e-09
C224 Nt224 0 1.3705679635616626e-12
L225 Nt224 Nt225 4.846293756297467e-09
C225 Nt225 0 1.408745706615481e-12
L226 Nt225 Nt226 4.987267144701726e-09
C226 Nt226 0 1.4491650621405884e-12
L227 Nt226 Nt227 5.136767630141494e-09
C227 Nt227 0 1.4920293859202039e-12
L228 Nt227 Nt228 5.295592899714285e-09
C228 Nt228 0 1.537567398279089e-12
L229 Nt228 Nt229 5.4646433382956045e-09
C229 Nt229 0 1.5860372660118747e-12
L230 Nt229 Nt230 5.644939105394192e-09
C230 Nt230 0 1.6377314988191175e-12
L231 Nt230 Nt231 5.8376407367119816e-09
C231 Nt231 0 1.692982856379747e-12
L232 Nt231 Nt232 6.04407414943536e-09
C232 Nt232 0 1.7521715181026406e-12
L233 Nt232 Nt233 6.2657611900254455e-09
C233 Nt233 0 1.8157338420754873e-12
L234 Nt233 Nt234 6.504457212761893e-09
C234 Nt234 0 1.8841731399372306e-12
L235 Nt234 Nt235 6.762197652204134e-09
C235 Nt235 0 1.958073030570847e-12
L236 Nt235 Nt236 7.041356205239798e-09
C236 Nt236 0 2.0381141226058227e-12
L237 Nt236 Nt237 7.3447181454717834e-09
C237 Nt237 0 2.12509503580666e-12
L238 Nt237 Nt238 7.675573569646e-09
C238 Nt238 0 2.2199591375629753e-12
L239 Nt238 Nt239 8.037837198274486e-09
C239 Nt239 0 2.3238288932474908e-12
L240 Nt239 Nt240 8.436203992364424e-09
C240 Nt240 0 2.4380504861037413e-12
L241 Nt240 Nt241 8.876353733643303e-09
C241 Nt241 0 2.56425247640651e-12
L242 Nt241 Nt242 9.365223536681564e-09
C242 Nt242 0 2.7044239386928843e-12
L243 Nt242 Nt243 9.911376151235462e-09
C243 Nt243 0 2.861020064863445e-12
L244 Nt243 Nt244 1.0525505782356194e-08
C244 Nt244 0 3.0371071976668557e-12
L245 Nt244 Nt245 1.122114530802807e-08
C245 Nt245 0 3.2365656107724108e-12
L246 Nt245 Nt246 1.2015675097134753e-08
C246 Nt246 0 3.46437876651665e-12
L247 Nt246 Nt247 1.2931794966732408e-08
C247 Nt247 0 3.727055369294752e-12
L248 Nt247 Nt248 1.3999727891988836e-08
C248 Nt248 0 4.033261233937702e-12
L249 Nt248 Nt249 1.5260618214103937e-08
C249 Nt249 0 4.394793651751056e-12
L250 Nt249 Nt250 1.6771954740095562e-08
C250 Nt250 0 4.828136352536068e-12
L251 Nt250 Nt251 1.861658161571578e-08
C251 Nt251 0 5.3570431865640615e-12
L252 Nt251 Nt252 2.091840931148756e-08
C252 Nt252 0 6.017042925809312e-12
L253 Nt252 Nt253 2.3871460152146245e-08
C253 Nt253 0 6.863767470500347e-12
L254 Nt253 Nt254 2.7797627720069606e-08
C254 Nt254 0 7.989513166861228e-12
L255 Nt254 Nt255 3.027504730086885e-08
C255 Nt255 0 8.69813808295437e-12
L256 Nt255 Nt256 2.9739954485487282e-08
C256 Nt256 0 8.54103560254746e-12
L257 Nt256 Nt257 2.9223193075215138e-08
C257 Nt257 0 8.389315849269742e-12
L258 Nt257 Nt258 2.8723837257904222e-08
C258 Nt258 0 8.242706973500228e-12
L259 Nt258 Nt259 2.8241022532147448e-08
C259 Nt259 0 8.100955128515624e-12
L260 Nt259 Nt260 2.7773940714645574e-08
C260 Nt260 0 7.96382300448512e-12
L261 Nt260 Nt261 2.73218354276363e-08
C261 Nt261 0 7.831088503427646e-12
L262 Nt261 Nt262 2.6883998013373602e-08
C262 Nt262 0 7.702543539565467e-12
L263 Nt262 Nt263 2.64597638292244e-08
C263 Nt263 0 7.57799295143983e-12
L264 Nt263 Nt264 2.6048508882673165e-08
C264 Nt264 0 7.457253513835024e-12
L265 Nt264 Nt265 2.5649646770375153e-08
C265 Nt265 0 7.340153038981373e-12
L266 Nt265 Nt266 2.526262588969894e-08
C266 Nt266 0 7.2265295577702306e-12
L267 Nt266 Nt267 2.488692689485742e-08
C267 Nt267 0 7.116230572788408e-12
L268 Nt267 Nt268 2.4522060372982338e-08
C268 Nt268 0 7.0091123759354185e-12
L269 Nt268 Nt269 2.4167564718238923e-08
C269 Nt269 0 6.905039424191953e-12
L270 Nt269 Nt270 2.382300418458576e-08
C270 Nt270 0 6.80388376784464e-12
L271 Nt270 Nt271 2.3487967099922956e-08
C271 Nt271 0 6.705524526099806e-12
L272 Nt271 Nt272 2.316206422619616e-08
C272 Nt272 0 6.609847405554816e-12
L273 Nt272 Nt273 2.2844927251762276e-08
C273 Nt273 0 6.516744257505888e-12
L274 Nt273 Nt274 2.253620740372049e-08
C274 Nt274 0 6.426112670481763e-12
L275 Nt274 Nt275 2.2235574169222712e-08
C275 Nt275 0 6.337855594777409e-12
L276 Nt275 Nt276 2.194271411589738e-08
C276 Nt276 0 6.2518809960907254e-12
L277 Nt276 Nt277 2.1657329802560646e-08
C277 Nt277 0 6.168101535670687e-12
L278 Nt277 Nt278 2.137913877222352e-08
C278 Nt278 0 6.0864342746303335e-12
L279 Nt278 Nt279 2.1107872620255997e-08
C279 Nt279 0 6.006800400328383e-12
L280 Nt279 Nt280 2.084327613123644e-08
C280 Nt280 0 5.9291249729191615e-12
L281 Nt280 Nt281 2.058510647864659e-08
C281 Nt281 0 5.8533366903561015e-12
L282 Nt281 Nt282 2.033313248214259e-08
C282 Nt282 0 5.779367670301521e-12
L283 Nt282 Nt283 2.0087133917626836e-08
C283 Nt283 0 5.7071532475404885e-12
L284 Nt283 Nt284 1.9846900875794143e-08
C284 Nt284 0 5.6366317856283744e-12
L285 Nt284 Nt285 1.9612233165212468e-08
C285 Nt285 0 5.5677445016152665e-12
L286 Nt285 Nt286 1.9382939756398638e-08
C286 Nt286 0 5.500435302807881e-12
L287 Nt286 Nt287 1.9158838263608714e-08
C287 Nt287 0 5.434650634605767e-12
L288 Nt287 Nt288 1.8939754461419948e-08
C288 Nt288 0 5.370339338553495e-12
L289 Nt288 Nt289 1.872552183338493e-08
C289 Nt289 0 5.307452519810325e-12
L290 Nt289 Nt290 1.8515981150329785e-08
C290 Nt290 0 5.24594342332435e-12
L291 Nt290 Nt291 1.8334901519256095e-08
C291 Nt291 0 5.192541998481404e-12
L292 Nt291 Nt292 1.8914407877830894e-08
C292 Nt292 0 5.354496387526079e-12
L293 Nt292 Nt293 1.9532050292412584e-08
C293 Nt293 0 5.527109095674276e-12
L294 Nt293 Nt294 2.0191720874454563e-08
C294 Nt294 0 5.711467896106801e-12
L295 Nt294 Nt295 2.0897860019226104e-08
C295 Nt295 0 5.90881379719219e-12
L296 Nt295 Nt296 2.165555647636019e-08
C296 Nt296 0 6.12056901035434e-12
L297 Nt296 Nt297 2.247067016812785e-08
C297 Nt297 0 6.348371275509041e-12
L298 Nt297 Nt298 2.33499840257483e-08
C298 Nt298 0 6.594116296504911e-12
L299 Nt298 Nt299 2.4301393170381974e-08
C299 Nt299 0 6.860010613712649e-12
L300 Nt299 Nt300 2.533414261270353e-08
C300 Nt300 0 7.1486380366601526e-12
L301 Nt300 Nt301 2.645912863657826e-08
C301 Nt301 0 7.463043875196941e-12
L302 Nt301 Nt302 2.7689284703151668e-08
C302 Nt302 0 7.80684279255108e-12
L303 Nt302 Nt303 2.9040080884676762e-08
C303 Nt303 0 8.184358387848432e-12
L304 Nt303 Nt304 3.053017780330862e-08
C304 Nt304 0 8.600805959913174e-12
L305 Nt304 Nt305 3.0648587609921085e-08
C305 Nt305 0 8.63064315730867e-12
L306 Nt305 Nt306 2.99420129014756e-08
C306 Nt306 0 8.428231319057935e-12
L307 Nt306 Nt307 2.926696937713985e-08
C307 Nt307 0 8.234852878214659e-12
L308 Nt307 Nt308 2.8621392873309843e-08
C308 Nt308 0 8.049916471153174e-12
L309 Nt308 Nt309 2.8003395550179553e-08
C309 Nt309 0 7.87288124937143e-12
L310 Nt309 Nt310 2.7411247458117044e-08
C310 Nt310 0 7.703251598429675e-12
L311 Nt310 Nt311 2.684336036923072e-08
C311 Nt311 0 7.540572505844974e-12
L312 Nt311 Nt312 2.6298273555874086e-08
C312 Nt312 0 7.384425486765472e-12
L313 Nt312 Nt313 2.577464124801245e-08
C313 Nt313 0 7.234424990622928e-12
L314 Nt313 Nt314 2.5271221542617796e-08
C314 Nt314 0 7.090215223777782e-12
L315 Nt314 Nt315 2.4786866572754506e-08
C315 Nt315 0 6.951467333053912e-12
L316 Nt315 Nt316 2.4320513772486752e-08
C316 Nt316 0 6.8178769032160534e-12
L317 Nt316 Nt317 2.3871178097722267e-08
C317 Nt317 0 6.689161728314112e-12
L318 Nt317 Nt318 2.343794508314063e-08
C318 Nt318 0 6.565059822557861e-12
L319 Nt318 Nt319 2.3019964632171396e-08
C319 Nt319 0 6.44532764120359e-12
L320 Nt319 Nt320 2.2616445451339982e-08
C320 Nt320 0 6.329738486046125e-12
L321 Nt320 Nt321 2.222665005227444e-08
C321 Nt321 0 6.218081073540364e-12
L322 Nt321 Nt322 2.184989025493892e-08
C322 Nt322 0 6.110158246519621e-12
L323 Nt322 Nt323 2.1485523134467905e-08
C323 Nt323 0 6.005785813001424e-12
L324 Nt323 Nt324 2.163903728148724e-08
C324 Nt324 0 6.046198912674106e-12
L325 Nt324 Nt325 2.189925946359654e-08
C325 Nt325 0 6.1163790578870234e-12
L326 Nt325 Nt326 2.2165942006245604e-08
C326 Nt326 0 6.188302047669953e-12
L327 Nt326 Nt327 2.2439328337493014e-08
C327 Nt327 0 6.262033553245573e-12
L328 Nt327 Nt328 2.2719674270998543e-08
C328 Nt328 0 6.337642587183058e-12
L329 Nt328 Nt329 2.3007248803894987e-08
C329 Nt329 0 6.415201718645311e-12
L330 Nt329 Nt330 2.3302334977144404e-08
C330 Nt330 0 6.494787305493008e-12
L331 Nt330 Nt331 2.360523080415939e-08
C331 Nt331 0 6.5764797448049836e-12
L332 Nt331 Nt332 2.3916250274096302e-08
C332 Nt332 0 6.660363743543352e-12
L333 Nt332 Nt333 2.423572443692186e-08
C333 Nt333 0 6.746528611279184e-12
L334 Nt333 Nt334 2.45640025781329e-08
C334 Nt334 0 6.835068577104509e-12
L335 Nt334 Nt335 2.4901453491894497e-08
C335 Nt335 0 6.926083133095311e-12
L336 Nt335 Nt336 2.5248466862352513e-08
C336 Nt336 0 7.019677406957446e-12
L337 Nt336 Nt337 2.5605454763991686e-08
C337 Nt337 0 7.1159625667882915e-12
L338 Nt337 Nt338 2.5972853293198962e-08
C338 Nt338 0 7.2150562612344985e-12
L339 Nt338 Nt339 2.6351124344589274e-08
C339 Nt339 0 7.317083098703268e-12
L340 Nt339 Nt340 2.674075754734269e-08
C340 Nt340 0 7.422175169740999e-12
L341 Nt340 Nt341 2.714227237857451e-08
C341 Nt341 0 7.530472617171257e-12
L342 Nt341 Nt342 2.7556220472969125e-08
C342 Nt342 0 7.64212425918017e-12
L343 Nt342 Nt343 2.7983188150230366e-08
C343 Nt343 0 7.757288271163603e-12
L344 Nt343 Nt344 2.8423799184723757e-08
C344 Nt344 0 7.876132932912083e-12
L345 Nt344 Nt345 2.887871784481255e-08
C345 Nt345 0 7.998837448552813e-12
L346 Nt345 Nt346 2.9348652233040656e-08
C346 Nt346 0 8.125592847653168e-12
L347 Nt346 Nt347 2.983435796247514e-08
C347 Nt347 0 8.256602977012204e-12
L348 Nt347 Nt348 3.033664220937805e-08
C348 Nt348 0 8.392085593977047e-12
L349 Nt348 Nt349 3.085636818787791e-08
C349 Nt349 0 8.532273573604965e-12
L350 Nt349 Nt350 3.139446009889502e-08
C350 Nt350 0 8.677416243768033e-12
L351 Nt350 Nt351 3.1693248566882376e-08
C351 Nt351 0 8.7563173960892e-12
L352 Nt351 Nt352 3.1705922047779634e-08
C352 Nt352 0 8.756132645317249e-12
L353 Nt352 Nt353 3.1718611391770624e-08
C353 Nt353 0 8.755948439896433e-12
L354 Nt353 Nt354 3.173131662071823e-08
C354 Nt354 0 8.755764781491695e-12
L355 Nt354 Nt355 3.174403775652621e-08
C355 Nt355 0 8.755581671770886e-12
L356 Nt355 Nt356 3.175677482113902e-08
C356 Nt356 0 8.755399112404761e-12
L357 Nt356 Nt357 3.1769527836542124e-08
C357 Nt357 0 8.755217105066999e-12
L358 Nt357 Nt358 3.178229682476205e-08
C358 Nt358 0 8.755035651434198e-12
L359 Nt358 Nt359 3.179508180786639e-08
C359 Nt359 0 8.754854753185884e-12
L360 Nt359 Nt360 3.180788280796395e-08
C360 Nt360 0 8.754674412004511e-12
L361 Nt360 Nt361 3.182069984720498e-08
C361 Nt361 0 8.75449462957548e-12
L362 Nt361 Nt362 3.183353294778089e-08
C362 Nt362 0 8.754315407587129e-12
L363 Nt362 Nt363 3.184638213192486e-08
C363 Nt363 0 8.754136747730753e-12
L364 Nt363 Nt364 3.18592474219116e-08
C364 Nt364 0 8.753958651700592e-12
L365 Nt364 Nt365 3.18721288400575e-08
C365 Nt365 0 8.753781121193862e-12
L366 Nt365 Nt366 3.188502640872077e-08
C366 Nt366 0 8.753604157910734e-12
L367 Nt366 Nt367 3.189794015030152e-08
C367 Nt367 0 8.753427763554354e-12
L368 Nt367 Nt368 3.191087008724183e-08
C368 Nt368 0 8.753251939830854e-12
L369 Nt368 Nt369 3.1923816242026016e-08
C369 Nt369 0 8.753076688449338e-12
L370 Nt369 Nt370 3.193677863718038e-08
C370 Nt370 0 8.752902011121915e-12
L371 Nt370 Nt371 3.194975729527375e-08
C371 Nt371 0 8.75272790956368e-12
L372 Nt371 Nt372 3.196275223891718e-08
C372 Nt372 0 8.752554385492727e-12
L373 Nt372 Nt373 3.197576349076436e-08
C373 Nt373 0 8.752381440630167e-12
L374 Nt373 Nt374 3.198879107351143e-08
C374 Nt374 0 8.75220907670012e-12
L375 Nt374 Nt375 3.2001835009897396e-08
C375 Nt375 0 8.752037295429724e-12
L376 Nt375 Nt376 3.2014895322703964e-08
C376 Nt376 0 8.751866098549145e-12
L377 Nt376 Nt377 3.202797203475571e-08
C377 Nt377 0 8.751695487791577e-12
L378 Nt377 Nt378 3.204106516892027e-08
C378 Nt378 0 8.751525464893255e-12
L379 Nt378 Nt379 3.205417474810848e-08
C379 Nt379 0 8.751356031593452e-12
L380 Nt379 Nt380 3.2067300795274206e-08
C380 Nt380 0 8.751187189634499e-12
L381 Nt380 Nt381 3.2080443333414706e-08
C381 Nt381 0 8.75101894076177e-12
L382 Nt381 Nt382 3.209360238557066e-08
C382 Nt382 0 8.750851286723708e-12
L383 Nt382 Nt383 3.210677797482625e-08
C383 Nt383 0 8.750684229271821e-12
L384 Nt383 Nt384 3.211997012430929e-08
C384 Nt384 0 8.750517770160691e-12
L385 Nt384 Nt385 3.21331788571913e-08
C385 Nt385 0 8.750351911147975e-12
L386 Nt385 Nt386 3.214640419668757e-08
C386 Nt386 0 8.75018665399442e-12
L387 Nt386 Nt387 3.215964616605739e-08
C387 Nt387 0 8.750022000463861e-12
L388 Nt387 Nt388 3.217290478860412e-08
C388 Nt388 0 8.749857952323233e-12
L389 Nt388 Nt389 3.21861800876752e-08
C389 Nt389 0 8.749694511342572e-12
L390 Nt389 Nt390 3.219947208666229e-08
C390 Nt390 0 8.749531679295023e-12
L391 Nt390 Nt391 3.221278080900139e-08
C391 Nt391 0 8.74936945795685e-12
L392 Nt391 Nt392 3.2226106278173065e-08
C392 Nt392 0 8.749207849107435e-12
L393 Nt392 Nt393 3.223944851770227e-08
C393 Nt393 0 8.749046854529292e-12
L394 Nt393 Nt394 2.602724738810562e-08
C394 Nt394 0 7.060142975780486e-12
L395 Nt394 Nt395 1.887721819404088e-08
C395 Nt395 0 5.118412086950642e-12
L396 Nt395 Nt396 1.599082990946258e-08
C396 Nt396 0 4.333912428808013e-12
L397 Nt396 Nt397 1.609995193500139e-08
C397 Nt397 0 4.3615962552492516e-12
L398 Nt397 Nt398 1.6210621140682644e-08
C398 Nt398 0 4.389673008077106e-12
L399 Nt398 Nt399 1.632287059801055e-08
C399 Nt399 0 4.418151086511819e-12
L400 Nt399 Nt400 1.643673432784973e-08
C400 Nt400 0 4.447039130883868e-12
L401 Nt400 Nt401 1.655224733474076e-08
C401 Nt401 0 4.476346031349127e-12
L402 Nt401 Nt402 1.6669445642709497e-08
C402 Nt402 0 4.506080936983397e-12
L403 Nt402 Nt403 1.6788366332653193e-08
C403 Nt403 0 4.536253265277417e-12
L404 Nt403 Nt404 1.6909047581387865e-08
C404 Nt404 0 4.566872712053758e-12
L405 Nt404 Nt405 1.70315287024329e-08
C405 Nt405 0 4.5979492618249485e-12
L406 Nt405 Nt406 1.715585018863886e-08
C406 Nt406 0 4.629493198619705e-12