** NOISE_Library **

.subckt noise_source_1 in out

        ** NOISE SOURCE **
        i out in PWL file=/Users/torque/programs/spice-daemon/spice-daemon/noise_data_noise_source_1.csv

        .ends noise_source_1

        